                                  MODFLOW-2005     
      U.S. GEOLOGICAL SURVEY MODULAR FINITE-DIFFERENCE GROUND-WATER FLOW MODEL
                            VERSION 1.12.00 2/3/2017

 LIST FILE: ex3.3.lst
                         UNIT   11

 OPENING ex3.3.cbc
 FILE TYPE:DATA(BINARY)   UNIT    9   STATUS:REPLACE
 FORMAT:BINARY                 ACCESS:SEQUENTIAL          
#Files generated outside of ModelMuse                                                                                                                                                                                                                                                                       

 OPENING ex3.3.obh
 FILE TYPE:HOB   UNIT   90   STATUS:OLD    
 FORMAT:FORMATTED              ACCESS:SEQUENTIAL          

 OPENING ex3.3.obh_out
 FILE TYPE:DATA   UNIT   91   STATUS:UNKNOWN
 FORMAT:FORMATTED              ACCESS:SEQUENTIAL          
#Files generated by ModelMuse                                                                                                                                                                                                                                                                               

 OPENING ex3.3.dis
 FILE TYPE:DIS   UNIT   12   STATUS:OLD    
 FORMAT:FORMATTED              ACCESS:SEQUENTIAL          

 OPENING ex3.3.bas
 FILE TYPE:BAS6   UNIT   13   STATUS:OLD    
 FORMAT:FORMATTED              ACCESS:SEQUENTIAL          

 OPENING ex3.3.oc
 FILE TYPE:OC   UNIT   39   STATUS:OLD    
 FORMAT:FORMATTED              ACCESS:SEQUENTIAL          

 OPENING ex3.3.fhd
 FILE TYPE:DATA   UNIT   37   STATUS:REPLACE
 FORMAT:FORMATTED              ACCESS:SEQUENTIAL          

 OPENING ex3.3.fdn
 FILE TYPE:DATA   UNIT   38   STATUS:REPLACE
 FORMAT:FORMATTED              ACCESS:SEQUENTIAL          

 OPENING ex3.3.pcg
 FILE TYPE:PCG   UNIT   18   STATUS:OLD    
 FORMAT:FORMATTED              ACCESS:SEQUENTIAL          

 OPENING ex3.3.lpf
 FILE TYPE:LPF   UNIT   14   STATUS:OLD    
 FORMAT:FORMATTED              ACCESS:SEQUENTIAL          

 OPENING ex3.3.ghb
 FILE TYPE:GHB   UNIT   19   STATUS:OLD    
 FORMAT:FORMATTED              ACCESS:SEQUENTIAL          

 OPENING ex3.3.riv
 FILE TYPE:RIV   UNIT   21   STATUS:OLD    
 FORMAT:FORMATTED              ACCESS:SEQUENTIAL          

 OPENING ex3.3.ob_rvob
 FILE TYPE:RVOB   UNIT   48   STATUS:OLD    
 FORMAT:FORMATTED              ACCESS:SEQUENTIAL          

 OPENING ex3.3.rvob_out
 FILE TYPE:DATA   UNIT   49   STATUS:REPLACE
 FORMAT:FORMATTED              ACCESS:SEQUENTIAL          

 OPENING ex3.3.rch
 FILE TYPE:RCH   UNIT   24   STATUS:OLD    
 FORMAT:FORMATTED              ACCESS:SEQUENTIAL          

 OPENING ex3.3.zon
 FILE TYPE:ZONE   UNIT   15   STATUS:OLD    
 FORMAT:FORMATTED              ACCESS:SEQUENTIAL          

 OPENING ex3.3.mlt
 FILE TYPE:MULT   UNIT   16   STATUS:OLD    
 FORMAT:FORMATTED              ACCESS:SEQUENTIAL          

 OPENING ex3.3.pval
 FILE TYPE:PVAL   UNIT   52   STATUS:OLD    
 FORMAT:FORMATTED              ACCESS:SEQUENTIAL          

 BAS -- BASIC PACKAGE, VERSION 7, 5/2/2005 INPUT READ FROM UNIT   13
 
 MODFLOW was compiled using mixed precision
 Precision of REAL variables:           6
 Precision of DOUBLE PRECISION variables:          15

 DISCRETIZATION INPUT DATA READ FROM UNIT   12
 # Discretization File created on 3/23/2009 by ModelMuse version 1.0.9.0.
    2 LAYERS        18 ROWS        18 COLUMNS
    1 STRESS PERIOD(S) IN SIMULATION
 MODEL TIME UNIT IS SECONDS
 MODEL LENGTH UNIT IS METERS
  Confining bed flag for each layer:
   1   0

                     DELR =   1000.00    

                     DELC =   1000.00    

 TOP ELEVATION OF LAYER 1 =   100.000    

   MODEL LAYER BOTTOM EL. =   50.0000     FOR LAYER   1

 BOT. EL. OF QUASI-3D BED =   40.0000     FOR LAYER   1

   MODEL LAYER BOTTOM EL. =  -10.0000     FOR LAYER   2


 STRESS PERIOD     LENGTH       TIME STEPS     MULTIPLIER FOR DELT    SS FLAG
 ----------------------------------------------------------------------------
        1         1.000000          1                    1.000         SS

 STEADY-STATE SIMULATION



 
 # Basic Package file created on 3/23/2009 by ModelMuse version 1.0.9.0.         
 THE FREE FORMAT OPTION HAS BEEN SELECTED
 THE PRINTTIME OPTION HAS BEEN SELECTED
 CALCULATE FLOW BETWEEN ADJACENT CONSTANT-HEAD CELLS

           BOUNDARY ARRAY =              1 FOR LAYER   1

           BOUNDARY ARRAY =              1 FOR LAYER   2

 AQUIFER HEAD WILL BE SET TO -1.00000E+20 AT ALL NO-FLOW NODES (IBOUND=0).

             INITIAL HEAD =   200.000     FOR LAYER   1

             INITIAL HEAD =   200.000     FOR LAYER   2
 # Output Control file created on 3/23/2009 by ModelMuse version 1.0.9.0.

 OUTPUT CONTROL IS SPECIFIED ONLY AT TIME STEPS FOR WHICH OUTPUT IS DESIRED
 HEADS WILL BE SAVED WITH FORMAT: (10(1X1PE13.5))     
 SAVED HEADS WILL BE LABELED
 DRAWDOWN WILL BE SAVED WITH FORMAT: (10(1X1PE13.5))     
 SAVED DRAWDOWN WILL BE LABELED
 COMPACT CELL-BY-CELL BUDGET FILES WILL BE WRITTEN
 AUXILIARY DATA WILL BE SAVED IN CELL-BY-CELL BUDGET FILES
 HEAD PRINT FORMAT CODE IS  -4    DRAWDOWN PRINT FORMAT CODE IS   0
 HEADS WILL BE SAVED ON UNIT   37    DRAWDOWNS WILL BE SAVED ON UNIT   38

 ZONE OPTION, INPUT READ FROM UNIT   15
 # Zone (ZONE) File created on 3/23/2009 by ModelMuse version 1.0.9.0.
     2 ZONE ARRAYS

 MULTIPLIER OPTION, INPUT READ FROM UNIT   16
 # Multiplier (MULT) File created on 3/23/2009 by ModelMuse version 1.0.9.0.
   3 MULTIPLIER ARRAYS



            MULT. ARRAY: HK_2_M2   
 READING ON UNIT   16 WITH FORMAT: (FREE)              

            1           2           3           4           5           6           7           8           9          10
           11          12          13          14          15          16          17          18
 ........................................................................................................................
   1    1.000       1.000       2.000       2.000       3.000       3.000       4.000       4.000       5.000       5.000    
        6.000       6.000       7.000       7.000       8.000       8.000       9.000       9.000    
   2    1.000       1.000       2.000       2.000       3.000       3.000       4.000       4.000       5.000       5.000    
        6.000       6.000       7.000       7.000       8.000       8.000       9.000       9.000    
   3    1.000       1.000       2.000       2.000       3.000       3.000       4.000       4.000       5.000       5.000    
        6.000       6.000       7.000       7.000       8.000       8.000       9.000       9.000    
   4    1.000       1.000       2.000       2.000       3.000       3.000       4.000       4.000       5.000       5.000    
        6.000       6.000       7.000       7.000       8.000       8.000       9.000       9.000    
   5    1.000       1.000       2.000       2.000       3.000       3.000       4.000       4.000       5.000       5.000    
        6.000       6.000       7.000       7.000       8.000       8.000       9.000       9.000    
   6    1.000       1.000       2.000       2.000       3.000       3.000       4.000       4.000       5.000       5.000    
        6.000       6.000       7.000       7.000       8.000       8.000       9.000       9.000    
   7    1.000       1.000       2.000       2.000       3.000       3.000       4.000       4.000       5.000       5.000    
        6.000       6.000       7.000       7.000       8.000       8.000       9.000       9.000    
   8    1.000       1.000       2.000       2.000       3.000       3.000       4.000       4.000       5.000       5.000    
        6.000       6.000       7.000       7.000       8.000       8.000       9.000       9.000    
   9    1.000       1.000       2.000       2.000       3.000       3.000       4.000       4.000       5.000       5.000    
        6.000       6.000       7.000       7.000       8.000       8.000       9.000       9.000    
  10    1.000       1.000       2.000       2.000       3.000       3.000       4.000       4.000       5.000       5.000    
        6.000       6.000       7.000       7.000       8.000       8.000       9.000       9.000    
  11    1.000       1.000       2.000       2.000       3.000       3.000       4.000       4.000       5.000       5.000    
        6.000       6.000       7.000       7.000       8.000       8.000       9.000       9.000    
  12    1.000       1.000       2.000       2.000       3.000       3.000       4.000       4.000       5.000       5.000    
        6.000       6.000       7.000       7.000       8.000       8.000       9.000       9.000    
  13    1.000       1.000       2.000       2.000       3.000       3.000       4.000       4.000       5.000       5.000    
        6.000       6.000       7.000       7.000       8.000       8.000       9.000       9.000    
  14    1.000       1.000       2.000       2.000       3.000       3.000       4.000       4.000       5.000       5.000    
        6.000       6.000       7.000       7.000       8.000       8.000       9.000       9.000    
  15    1.000       1.000       2.000       2.000       3.000       3.000       4.000       4.000       5.000       5.000    
        6.000       6.000       7.000       7.000       8.000       8.000       9.000       9.000    
  16    1.000       1.000       2.000       2.000       3.000       3.000       4.000       4.000       5.000       5.000    
        6.000       6.000       7.000       7.000       8.000       8.000       9.000       9.000    
  17    1.000       1.000       2.000       2.000       3.000       3.000       4.000       4.000       5.000       5.000    
        6.000       6.000       7.000       7.000       8.000       8.000       9.000       9.000    
  18    1.000       1.000       2.000       2.000       3.000       3.000       4.000       4.000       5.000       5.000    
        6.000       6.000       7.000       7.000       8.000       8.000       9.000       9.000    



            MULT. ARRAY: R_Mult_1  
 READING ON UNIT   16 WITH FORMAT: (FREE)              

            1           2           3           4           5           6           7           8           9          10
           11          12          13          14          15          16          17          18
 ........................................................................................................................
   1   3.1710E-10  3.1710E-10  3.1710E-10  3.1710E-10  3.1710E-10  3.1710E-10  3.1710E-10  3.1710E-10  3.1710E-10   0.000    
        0.000       0.000       0.000       0.000       0.000       0.000       0.000       0.000    
   2   3.1710E-10  3.1710E-10  3.1710E-10  3.1710E-10  3.1710E-10  3.1710E-10  3.1710E-10  3.1710E-10  3.1710E-10   0.000    
        0.000       0.000       0.000       0.000       0.000       0.000       0.000       0.000    
   3   3.1710E-10  3.1710E-10  3.1710E-10  3.1710E-10  3.1710E-10  3.1710E-10  3.1710E-10  3.1710E-10  3.1710E-10   0.000    
        0.000       0.000       0.000       0.000       0.000       0.000       0.000       0.000    
   4   3.1710E-10  3.1710E-10  3.1710E-10  3.1710E-10  3.1710E-10  3.1710E-10  3.1710E-10  3.1710E-10  3.1710E-10   0.000    
        0.000       0.000       0.000       0.000       0.000       0.000       0.000       0.000    
   5   3.1710E-10  3.1710E-10  3.1710E-10  3.1710E-10  3.1710E-10  3.1710E-10  3.1710E-10  3.1710E-10  3.1710E-10   0.000    
        0.000       0.000       0.000       0.000       0.000       0.000       0.000       0.000    
   6   3.1710E-10  3.1710E-10  3.1710E-10  3.1710E-10  3.1710E-10  3.1710E-10  3.1710E-10  3.1710E-10  3.1710E-10   0.000    
        0.000       0.000       0.000       0.000       0.000       0.000       0.000       0.000    
   7   3.1710E-10  3.1710E-10  3.1710E-10  3.1710E-10  3.1710E-10  3.1710E-10  3.1710E-10  3.1710E-10  3.1710E-10   0.000    
        0.000       0.000       0.000       0.000       0.000       0.000       0.000       0.000    
   8   3.1710E-10  3.1710E-10  3.1710E-10  3.1710E-10  3.1710E-10  3.1710E-10  3.1710E-10  3.1710E-10  3.1710E-10   0.000    
        0.000       0.000       0.000       0.000       0.000       0.000       0.000       0.000    
   9   3.1710E-10  3.1710E-10  3.1710E-10  3.1710E-10  3.1710E-10  3.1710E-10  3.1710E-10  3.1710E-10  3.1710E-10   0.000    
        0.000       0.000       0.000       0.000       0.000       0.000       0.000       0.000    
  10   3.1710E-10  3.1710E-10  3.1710E-10  3.1710E-10  3.1710E-10  3.1710E-10  3.1710E-10  3.1710E-10  3.1710E-10   0.000    
        0.000       0.000       0.000       0.000       0.000       0.000       0.000       0.000    
  11   3.1710E-10  3.1710E-10  3.1710E-10  3.1710E-10  3.1710E-10  3.1710E-10  3.1710E-10  3.1710E-10  3.1710E-10   0.000    
        0.000       0.000       0.000       0.000       0.000       0.000       0.000       0.000    
  12   3.1710E-10  3.1710E-10  3.1710E-10  3.1710E-10  3.1710E-10  3.1710E-10  3.1710E-10  3.1710E-10  3.1710E-10   0.000    
        0.000       0.000       0.000       0.000       0.000       0.000       0.000       0.000    
  13   3.1710E-10  3.1710E-10  3.1710E-10  3.1710E-10  3.1710E-10  3.1710E-10  3.1710E-10  3.1710E-10  3.1710E-10   0.000    
        0.000       0.000       0.000       0.000       0.000       0.000       0.000       0.000    
  14   3.1710E-10  3.1710E-10  3.1710E-10  3.1710E-10  3.1710E-10  3.1710E-10  3.1710E-10  3.1710E-10  3.1710E-10   0.000    
        0.000       0.000       0.000       0.000       0.000       0.000       0.000       0.000    
  15   3.1710E-10  3.1710E-10  3.1710E-10  3.1710E-10  3.1710E-10  3.1710E-10  3.1710E-10  3.1710E-10  3.1710E-10   0.000    
        0.000       0.000       0.000       0.000       0.000       0.000       0.000       0.000    
  16   3.1710E-10  3.1710E-10  3.1710E-10  3.1710E-10  3.1710E-10  3.1710E-10  3.1710E-10  3.1710E-10  3.1710E-10   0.000    
        0.000       0.000       0.000       0.000       0.000       0.000       0.000       0.000    
  17   3.1710E-10  3.1710E-10  3.1710E-10  3.1710E-10  3.1710E-10  3.1710E-10  3.1710E-10  3.1710E-10  3.1710E-10   0.000    
        0.000       0.000       0.000       0.000       0.000       0.000       0.000       0.000    
  18   3.1710E-10  3.1710E-10  3.1710E-10  3.1710E-10  3.1710E-10  3.1710E-10  3.1710E-10  3.1710E-10  3.1710E-10   0.000    
        0.000       0.000       0.000       0.000       0.000       0.000       0.000       0.000    



            MULT. ARRAY: R_Mult_2  
 READING ON UNIT   16 WITH FORMAT: (FREE)              

            1           2           3           4           5           6           7           8           9          10
           11          12          13          14          15          16          17          18
 ........................................................................................................................
   1    0.000       0.000       0.000       0.000       0.000       0.000       0.000       0.000       0.000      3.1710E-10
       3.1710E-10  3.1710E-10  3.1710E-10  3.1710E-10  3.1710E-10  3.1710E-10  3.1710E-10  3.1710E-10
   2    0.000       0.000       0.000       0.000       0.000       0.000       0.000       0.000       0.000      3.1710E-10
       3.1710E-10  3.1710E-10  3.1710E-10  3.1710E-10  3.1710E-10  3.1710E-10  3.1710E-10  3.1710E-10
   3    0.000       0.000       0.000       0.000       0.000       0.000       0.000       0.000       0.000      3.1710E-10
       3.1710E-10  3.1710E-10  3.1710E-10  3.1710E-10  3.1710E-10  3.1710E-10  3.1710E-10  3.1710E-10
   4    0.000       0.000       0.000       0.000       0.000       0.000       0.000       0.000       0.000      3.1710E-10
       3.1710E-10  3.1710E-10  3.1710E-10  3.1710E-10  3.1710E-10  3.1710E-10  3.1710E-10  3.1710E-10
   5    0.000       0.000       0.000       0.000       0.000       0.000       0.000       0.000       0.000      3.1710E-10
       3.1710E-10  3.1710E-10  3.1710E-10  3.1710E-10  3.1710E-10  3.1710E-10  3.1710E-10  3.1710E-10
   6    0.000       0.000       0.000       0.000       0.000       0.000       0.000       0.000       0.000      3.1710E-10
       3.1710E-10  3.1710E-10  3.1710E-10  3.1710E-10  3.1710E-10  3.1710E-10  3.1710E-10  3.1710E-10
   7    0.000       0.000       0.000       0.000       0.000       0.000       0.000       0.000       0.000      3.1710E-10
       3.1710E-10  3.1710E-10  3.1710E-10  3.1710E-10  3.1710E-10  3.1710E-10  3.1710E-10  3.1710E-10
   8    0.000       0.000       0.000       0.000       0.000       0.000       0.000       0.000       0.000      3.1710E-10
       3.1710E-10  3.1710E-10  3.1710E-10  3.1710E-10  3.1710E-10  3.1710E-10  3.1710E-10  3.1710E-10
   9    0.000       0.000       0.000       0.000       0.000       0.000       0.000       0.000       0.000      3.1710E-10
       3.1710E-10  3.1710E-10  3.1710E-10  3.1710E-10  3.1710E-10  3.1710E-10  3.1710E-10  3.1710E-10
  10    0.000       0.000       0.000       0.000       0.000       0.000       0.000       0.000       0.000      3.1710E-10
       3.1710E-10  3.1710E-10  3.1710E-10  3.1710E-10  3.1710E-10  3.1710E-10  3.1710E-10  3.1710E-10
  11    0.000       0.000       0.000       0.000       0.000       0.000       0.000       0.000       0.000      3.1710E-10
       3.1710E-10  3.1710E-10  3.1710E-10  3.1710E-10  3.1710E-10  3.1710E-10  3.1710E-10  3.1710E-10
  12    0.000       0.000       0.000       0.000       0.000       0.000       0.000       0.000       0.000      3.1710E-10
       3.1710E-10  3.1710E-10  3.1710E-10  3.1710E-10  3.1710E-10  3.1710E-10  3.1710E-10  3.1710E-10
  13    0.000       0.000       0.000       0.000       0.000       0.000       0.000       0.000       0.000      3.1710E-10
       3.1710E-10  3.1710E-10  3.1710E-10  3.1710E-10  3.1710E-10  3.1710E-10  3.1710E-10  3.1710E-10
  14    0.000       0.000       0.000       0.000       0.000       0.000       0.000       0.000       0.000      3.1710E-10
       3.1710E-10  3.1710E-10  3.1710E-10  3.1710E-10  3.1710E-10  3.1710E-10  3.1710E-10  3.1710E-10
  15    0.000       0.000       0.000       0.000       0.000       0.000       0.000       0.000       0.000      3.1710E-10
       3.1710E-10  3.1710E-10  3.1710E-10  3.1710E-10  3.1710E-10  3.1710E-10  3.1710E-10  3.1710E-10
  16    0.000       0.000       0.000       0.000       0.000       0.000       0.000       0.000       0.000      3.1710E-10
       3.1710E-10  3.1710E-10  3.1710E-10  3.1710E-10  3.1710E-10  3.1710E-10  3.1710E-10  3.1710E-10
  17    0.000       0.000       0.000       0.000       0.000       0.000       0.000       0.000       0.000      3.1710E-10
       3.1710E-10  3.1710E-10  3.1710E-10  3.1710E-10  3.1710E-10  3.1710E-10  3.1710E-10  3.1710E-10
  18    0.000       0.000       0.000       0.000       0.000       0.000       0.000       0.000       0.000      3.1710E-10
       3.1710E-10  3.1710E-10  3.1710E-10  3.1710E-10  3.1710E-10  3.1710E-10  3.1710E-10  3.1710E-10



             ZONE ARRAY: R_Zone_1  
 READING ON UNIT   15 WITH FORMAT: (FREE)              

          1     2     3     4     5     6     7     8     9    10    11    12    13    14    15    16    17    18
 ................................................................................................................
   1      1     1     1     1     1     1     1     1     1     0     0     0     0     0     0     0     0     0
   2      1     1     1     1     1     1     1     1     1     0     0     0     0     0     0     0     0     0
   3      1     1     1     1     1     1     1     1     1     0     0     0     0     0     0     0     0     0
   4      1     1     1     1     1     1     1     1     1     0     0     0     0     0     0     0     0     0
   5      1     1     1     1     1     1     1     1     1     0     0     0     0     0     0     0     0     0
   6      1     1     1     1     1     1     1     1     1     0     0     0     0     0     0     0     0     0
   7      1     1     1     1     1     1     1     1     1     0     0     0     0     0     0     0     0     0
   8      1     1     1     1     1     1     1     1     1     0     0     0     0     0     0     0     0     0
   9      1     1     1     1     1     1     1     1     1     0     0     0     0     0     0     0     0     0
  10      1     1     1     1     1     1     1     1     1     0     0     0     0     0     0     0     0     0
  11      1     1     1     1     1     1     1     1     1     0     0     0     0     0     0     0     0     0
  12      1     1     1     1     1     1     1     1     1     0     0     0     0     0     0     0     0     0
  13      1     1     1     1     1     1     1     1     1     0     0     0     0     0     0     0     0     0
  14      1     1     1     1     1     1     1     1     1     0     0     0     0     0     0     0     0     0
  15      1     1     1     1     1     1     1     1     1     0     0     0     0     0     0     0     0     0
  16      1     1     1     1     1     1     1     1     1     0     0     0     0     0     0     0     0     0
  17      1     1     1     1     1     1     1     1     1     0     0     0     0     0     0     0     0     0
  18      1     1     1     1     1     1     1     1     1     0     0     0     0     0     0     0     0     0



             ZONE ARRAY: R_Zone_2  
 READING ON UNIT   15 WITH FORMAT: (FREE)              

          1     2     3     4     5     6     7     8     9    10    11    12    13    14    15    16    17    18
 ................................................................................................................
   1      0     0     0     0     0     0     0     0     0     1     1     1     1     1     1     1     1     1
   2      0     0     0     0     0     0     0     0     0     1     1     1     1     1     1     1     1     1
   3      0     0     0     0     0     0     0     0     0     1     1     1     1     1     1     1     1     1
   4      0     0     0     0     0     0     0     0     0     1     1     1     1     1     1     1     1     1
   5      0     0     0     0     0     0     0     0     0     1     1     1     1     1     1     1     1     1
   6      0     0     0     0     0     0     0     0     0     1     1     1     1     1     1     1     1     1
   7      0     0     0     0     0     0     0     0     0     1     1     1     1     1     1     1     1     1
   8      0     0     0     0     0     0     0     0     0     1     1     1     1     1     1     1     1     1
   9      0     0     0     0     0     0     0     0     0     1     1     1     1     1     1     1     1     1
  10      0     0     0     0     0     0     0     0     0     1     1     1     1     1     1     1     1     1
  11      0     0     0     0     0     0     0     0     0     1     1     1     1     1     1     1     1     1
  12      0     0     0     0     0     0     0     0     0     1     1     1     1     1     1     1     1     1
  13      0     0     0     0     0     0     0     0     0     1     1     1     1     1     1     1     1     1
  14      0     0     0     0     0     0     0     0     0     1     1     1     1     1     1     1     1     1
  15      0     0     0     0     0     0     0     0     0     1     1     1     1     1     1     1     1     1
  16      0     0     0     0     0     0     0     0     0     1     1     1     1     1     1     1     1     1
  17      0     0     0     0     0     0     0     0     0     1     1     1     1     1     1     1     1     1
  18      0     0     0     0     0     0     0     0     0     1     1     1     1     1     1     1     1     1

 PARAMETER VALUE INPUT FILE,  INPUT READ FROM UNIT   52
 # PVAL file created on 3/23/2009 by ModelMuse version 1.0.9.0.

 NUMBER OF PARAMETER VALUES TO BE READ FROM PARAMETER VALUE FILE:    7

 INFORMATION ON PARAMETERS LISTED IN PARAMETER FILE
               VALUE IN
    NAME     PARAMETER FILE
 ----------  --------------
 HK_1         0.30000E-03
 HK_2         0.40000E-04
 VANI          1.0000    
 VK_CB        0.10000E-06
 K_RB         0.12000E-02
 RCH_1         63.072    
 RCH_2         31.536    
 -----------------------------------------------------------------------------
 FOR THE PARAMETERS LISTED IN THE TABLE ABOVE, PARAMETER VALUES IN INDIVIDUAL
 PACKAGE INPUT FILES ARE REPLACED BY THE VALUES FROM THE PARAMETER INPUT FILE.

 LPF -- LAYER-PROPERTY FLOW PACKAGE, VERSION 7, 5/2/2005
         INPUT READ FROM UNIT   14
 # LPF: Layer Property Flow package file created on 3/23/2009 by ModelMuse version 1.0.9.0.
 CELL-BY-CELL FLOWS WILL BE SAVED ON UNIT    9
 HEAD AT CELLS THAT CONVERT TO DRY= -2.00000E+20
     4 Named Parameters     

   LAYER FLAGS:
 LAYER       LAYTYP        LAYAVG         CHANI        LAYVKA        LAYWET
 ---------------------------------------------------------------------------
    1             0             0    -1.000E+00             1             0
    2             0             0    -1.000E+00             1             0

   INTERPRETATION OF LAYER FLAGS:
                        INTERBLOCK     HORIZONTAL    DATA IN
         LAYER TYPE   TRANSMISSIVITY   ANISOTROPY   ARRAY VKA   WETTABILITY
 LAYER      (LAYTYP)      (LAYAVG)       (CHANI)      (LAYVKA)      (LAYWET)
 ---------------------------------------------------------------------------
    1      CONFINED      HARMONIC      VARIABLE    ANISOTROPY  NON-WETTABLE
    2      CONFINED      HARMONIC      VARIABLE    ANISOTROPY  NON-WETTABLE

 WETTING CAPABILITY IS NOT ACTIVE IN ANY LAYER

 PARAMETERS DEFINED IN THE LPF PACKAGE

 PARAMETER NAME:HK_1         TYPE:HK     CLUSTERS:   1
 Parameter value from package file is:   3.00000E-04
                LAYER:   1    MULTIPLIER ARRAY: NONE    ZONE ARRAY: ALL

 PARAMETER NAME:HK_2         TYPE:HK     CLUSTERS:   1
 Parameter value from package file is:   4.00000E-05
                LAYER:   2    MULTIPLIER ARRAY: HK_2_M2    ZONE ARRAY: ALL

 PARAMETER NAME:VANI         TYPE:VANI   CLUSTERS:   2
 Parameter value from package file is:    1.0000    
                LAYER:   1    MULTIPLIER ARRAY: NONE    ZONE ARRAY: ALL
                LAYER:   2    MULTIPLIER ARRAY: NONE    ZONE ARRAY: ALL

 PARAMETER NAME:VK_CB        TYPE:VKCB   CLUSTERS:   1
 Parameter value from package file is:   1.00000E-07
                LAYER:   1    MULTIPLIER ARRAY: NONE    ZONE ARRAY: ALL

    HYD. COND. ALONG ROWS FOR LAYER   1 WILL BE DEFINED BY PARAMETERS
 (PRINT FLAG=  12)

    HYD. COND. ALONG ROWS is defined by the following parameters:
 HK_1      

    HYD. COND. ALONG ROWS =  3.000000E-04 FOR LAYER   1

   HORIZ. ANI. (COL./ROW) =   1.00000     FOR LAYER   1

  HORIZ. TO VERTICAL ANI. FOR LAYER   1 WILL BE DEFINED BY PARAMETERS
 (PRINT FLAG=  12)

  HORIZ. TO VERTICAL ANI. is defined by the following parameters:
 VANI      

  HORIZ. TO VERTICAL ANI. =   1.00000     FOR LAYER   1

 QUASI3D VERT. HYD. COND. FOR LAYER   1 WILL BE DEFINED BY PARAMETERS
 (PRINT FLAG=  12)

 QUASI3D VERT. HYD. COND. is defined by the following parameters:
 VK_CB     

 QUASI3D VERT. HYD. COND. =  1.000000E-07 FOR LAYER   1

    HYD. COND. ALONG ROWS FOR LAYER   2 WILL BE DEFINED BY PARAMETERS
 (PRINT FLAG=  12)

    HYD. COND. ALONG ROWS is defined by the following parameters:
 HK_2      


              HYD. COND. ALONG ROWS FOR LAYER   2

            1           2           3           4           5           6           7           8           9          10
           11          12          13          14          15          16          17          18
 ........................................................................................................................
   1   4.0000E-05  4.0000E-05  8.0000E-05  8.0000E-05  1.2000E-04  1.2000E-04  1.6000E-04  1.6000E-04  2.0000E-04  2.0000E-04
       2.4000E-04  2.4000E-04  2.8000E-04  2.8000E-04  3.2000E-04  3.2000E-04  3.6000E-04  3.6000E-04
   2   4.0000E-05  4.0000E-05  8.0000E-05  8.0000E-05  1.2000E-04  1.2000E-04  1.6000E-04  1.6000E-04  2.0000E-04  2.0000E-04
       2.4000E-04  2.4000E-04  2.8000E-04  2.8000E-04  3.2000E-04  3.2000E-04  3.6000E-04  3.6000E-04
   3   4.0000E-05  4.0000E-05  8.0000E-05  8.0000E-05  1.2000E-04  1.2000E-04  1.6000E-04  1.6000E-04  2.0000E-04  2.0000E-04
       2.4000E-04  2.4000E-04  2.8000E-04  2.8000E-04  3.2000E-04  3.2000E-04  3.6000E-04  3.6000E-04
   4   4.0000E-05  4.0000E-05  8.0000E-05  8.0000E-05  1.2000E-04  1.2000E-04  1.6000E-04  1.6000E-04  2.0000E-04  2.0000E-04
       2.4000E-04  2.4000E-04  2.8000E-04  2.8000E-04  3.2000E-04  3.2000E-04  3.6000E-04  3.6000E-04
   5   4.0000E-05  4.0000E-05  8.0000E-05  8.0000E-05  1.2000E-04  1.2000E-04  1.6000E-04  1.6000E-04  2.0000E-04  2.0000E-04
       2.4000E-04  2.4000E-04  2.8000E-04  2.8000E-04  3.2000E-04  3.2000E-04  3.6000E-04  3.6000E-04
   6   4.0000E-05  4.0000E-05  8.0000E-05  8.0000E-05  1.2000E-04  1.2000E-04  1.6000E-04  1.6000E-04  2.0000E-04  2.0000E-04
       2.4000E-04  2.4000E-04  2.8000E-04  2.8000E-04  3.2000E-04  3.2000E-04  3.6000E-04  3.6000E-04
   7   4.0000E-05  4.0000E-05  8.0000E-05  8.0000E-05  1.2000E-04  1.2000E-04  1.6000E-04  1.6000E-04  2.0000E-04  2.0000E-04
       2.4000E-04  2.4000E-04  2.8000E-04  2.8000E-04  3.2000E-04  3.2000E-04  3.6000E-04  3.6000E-04
   8   4.0000E-05  4.0000E-05  8.0000E-05  8.0000E-05  1.2000E-04  1.2000E-04  1.6000E-04  1.6000E-04  2.0000E-04  2.0000E-04
       2.4000E-04  2.4000E-04  2.8000E-04  2.8000E-04  3.2000E-04  3.2000E-04  3.6000E-04  3.6000E-04
   9   4.0000E-05  4.0000E-05  8.0000E-05  8.0000E-05  1.2000E-04  1.2000E-04  1.6000E-04  1.6000E-04  2.0000E-04  2.0000E-04
       2.4000E-04  2.4000E-04  2.8000E-04  2.8000E-04  3.2000E-04  3.2000E-04  3.6000E-04  3.6000E-04
  10   4.0000E-05  4.0000E-05  8.0000E-05  8.0000E-05  1.2000E-04  1.2000E-04  1.6000E-04  1.6000E-04  2.0000E-04  2.0000E-04
       2.4000E-04  2.4000E-04  2.8000E-04  2.8000E-04  3.2000E-04  3.2000E-04  3.6000E-04  3.6000E-04
  11   4.0000E-05  4.0000E-05  8.0000E-05  8.0000E-05  1.2000E-04  1.2000E-04  1.6000E-04  1.6000E-04  2.0000E-04  2.0000E-04
       2.4000E-04  2.4000E-04  2.8000E-04  2.8000E-04  3.2000E-04  3.2000E-04  3.6000E-04  3.6000E-04
  12   4.0000E-05  4.0000E-05  8.0000E-05  8.0000E-05  1.2000E-04  1.2000E-04  1.6000E-04  1.6000E-04  2.0000E-04  2.0000E-04
       2.4000E-04  2.4000E-04  2.8000E-04  2.8000E-04  3.2000E-04  3.2000E-04  3.6000E-04  3.6000E-04
  13   4.0000E-05  4.0000E-05  8.0000E-05  8.0000E-05  1.2000E-04  1.2000E-04  1.6000E-04  1.6000E-04  2.0000E-04  2.0000E-04
       2.4000E-04  2.4000E-04  2.8000E-04  2.8000E-04  3.2000E-04  3.2000E-04  3.6000E-04  3.6000E-04
  14   4.0000E-05  4.0000E-05  8.0000E-05  8.0000E-05  1.2000E-04  1.2000E-04  1.6000E-04  1.6000E-04  2.0000E-04  2.0000E-04
       2.4000E-04  2.4000E-04  2.8000E-04  2.8000E-04  3.2000E-04  3.2000E-04  3.6000E-04  3.6000E-04
  15   4.0000E-05  4.0000E-05  8.0000E-05  8.0000E-05  1.2000E-04  1.2000E-04  1.6000E-04  1.6000E-04  2.0000E-04  2.0000E-04
       2.4000E-04  2.4000E-04  2.8000E-04  2.8000E-04  3.2000E-04  3.2000E-04  3.6000E-04  3.6000E-04
  16   4.0000E-05  4.0000E-05  8.0000E-05  8.0000E-05  1.2000E-04  1.2000E-04  1.6000E-04  1.6000E-04  2.0000E-04  2.0000E-04
       2.4000E-04  2.4000E-04  2.8000E-04  2.8000E-04  3.2000E-04  3.2000E-04  3.6000E-04  3.6000E-04
  17   4.0000E-05  4.0000E-05  8.0000E-05  8.0000E-05  1.2000E-04  1.2000E-04  1.6000E-04  1.6000E-04  2.0000E-04  2.0000E-04
       2.4000E-04  2.4000E-04  2.8000E-04  2.8000E-04  3.2000E-04  3.2000E-04  3.6000E-04  3.6000E-04
  18   4.0000E-05  4.0000E-05  8.0000E-05  8.0000E-05  1.2000E-04  1.2000E-04  1.6000E-04  1.6000E-04  2.0000E-04  2.0000E-04
       2.4000E-04  2.4000E-04  2.8000E-04  2.8000E-04  3.2000E-04  3.2000E-04  3.6000E-04  3.6000E-04

   HORIZ. ANI. (COL./ROW) =   1.00000     FOR LAYER   2

  HORIZ. TO VERTICAL ANI. FOR LAYER   2 WILL BE DEFINED BY PARAMETERS
 (PRINT FLAG=  12)

  HORIZ. TO VERTICAL ANI. is defined by the following parameters:
 VANI      

  HORIZ. TO VERTICAL ANI. =   1.00000     FOR LAYER   2

 RIV -- RIVER PACKAGE, VERSION 7, 5/2/2005 INPUT READ FROM UNIT   21
 # RIV: River package file created on 3/23/2009 by ModelMuse version 1.0.9.0.
          1 Named Parameters             18 List entries
 MAXIMUM OF     18 ACTIVE RIVER REACHES AT ONE TIME
 CELL-BY-CELL FLOWS WILL BE SAVED ON UNIT    9
 AUXILIARY RIVER VARIABLE: IFACE           


     1 River parameters

 PARAMETER NAME:K_RB         TYPE:RIV 
 Parameter value from package file is:   1.20000E-03
   NUMBER OF ENTRIES:     18

 REACH NO.  LAYER   ROW   COL     STAGE    STRESS FACTOR     BOTTOM EL.         IFACE           
 -----------------------------------------------------------------------------------------------
      1      1      1      1       100.0           1000.           90.00           0.000    
      2      1      2      1       100.0           1000.           90.00           0.000    
      3      1      3      1       100.0           1000.           90.00           0.000    
      4      1      4      1       100.0           1000.           90.00           0.000    
      5      1      5      1       100.0           1000.           90.00           0.000    
      6      1      6      1       100.0           1000.           90.00           0.000    
      7      1      7      1       100.0           1000.           90.00           0.000    
      8      1      8      1       100.0           1000.           90.00           0.000    
      9      1      9      1       100.0           1000.           90.00           0.000    
     10      1     10      1       100.0           1000.           90.00           0.000    
     11      1     11      1       100.0           1000.           90.00           0.000    
     12      1     12      1       100.0           1000.           90.00           0.000    
     13      1     13      1       100.0           1000.           90.00           0.000    
     14      1     14      1       100.0           1000.           90.00           0.000    
     15      1     15      1       100.0           1000.           90.00           0.000    
     16      1     16      1       100.0           1000.           90.00           0.000    
     17      1     17      1       100.0           1000.           90.00           0.000    
     18      1     18      1       100.0           1000.           90.00           0.000    

 GHB -- GENERAL-HEAD BOUNDARY PACKAGE, VERSION 7, 5/2/2005
         INPUT READ FROM UNIT   19
 # GHB: General-Head Boundary package file created on 3/23/2009 by ModelMuse version 1.0.9.0.
 No named parameters
 MAXIMUM OF     36 ACTIVE GHB CELLS AT ONE TIME
 CELL-BY-CELL FLOWS WILL BE SAVED ON UNIT    9
 AUXILIARY GHB VARIABLE: IFACE           


     0 GHB parameters

 RCH -- RECHARGE PACKAGE, VERSION 7, 5/2/2005 INPUT READ FROM UNIT   24
 # RCH: Recharge package file created on 3/23/2009 by ModelMuse version 1.0.9.0.
 # cm/yr
     2 Named Parameters     
 OPTION 1 -- RECHARGE TO TOP LAYER
 CELL-BY-CELL FLOWS WILL BE SAVED ON UNIT    9


     2 Recharge parameters

 PARAMETER NAME:RCH_1        TYPE:RCH    CLUSTERS:   1
 Parameter value from package file is:    63.072    
                MULTIPLIER ARRAY: R_Mult_1    ZONE ARRAY: R_Zone_1
                ZONE VALUES:    1

 PARAMETER NAME:RCH_2        TYPE:RCH    CLUSTERS:   1
 Parameter value from package file is:    31.536    
                MULTIPLIER ARRAY: R_Mult_2    ZONE ARRAY: R_Zone_2
                ZONE VALUES:    1

 PCG -- CONJUGATE-GRADIENT SOLUTION PACKAGE, VERSION 7, 5/2/2005
 # PCG: Preconditioned Conjugate Gradient package file created on 3/23/2009 by ModelMuse version 1.0.9.0.
 MAXIMUM OF      1 CALLS OF SOLUTION ROUTINE
 MAXIMUM OF     30 INTERNAL ITERATIONS PER CALL TO SOLUTION ROUTINE
 MATRIX PRECONDITIONING TYPE :    1



                                    SOLUTION BY THE CONJUGATE-GRADIENT METHOD
                                   -------------------------------------------
                    MAXIMUM NUMBER OF CALLS TO PCG ROUTINE =        1
                        MAXIMUM ITERATIONS PER CALL TO PCG =       30
                               MATRIX PRECONDITIONING TYPE =        1
        RELAXATION FACTOR (ONLY USED WITH PRECOND. TYPE 1) =    0.10000E+01
 PARAMETER OF POLYNOMIAL PRECOND. = 2 (2) OR IS CALCULATED :        1
                         HEAD CHANGE CRITERION FOR CLOSURE =    0.10000E-02
                     RESIDUAL CHANGE CRITERION FOR CLOSURE =    0.10000E-02
            PCG HEAD AND RESIDUAL CHANGE PRINTOUT INTERVAL =        1
     PRINTING FROM SOLVER IS LIMITED(1) OR SUPPRESSED (>1) =        0
                            STEADY-STATE DAMPING PARAMETER =    0.10000E+01
                               TRANSIENT DAMPING PARAMETER =    0.10000E+01

 OBS2BAS7 -- HEAD OBSERVATIONS, VERSION 2.0, 2/28/2006
 INPUT READ FROM UNIT  90

 NUMBER OF HEADS....................................:   10
   NUMBER OF MULTILAYER HEADS.......................:    0
   MAXIMUM NUMBER OF LAYERS FOR MULTILAYER HEADS....:    0
 HEAD OBSERVATIONS WILL BE SAVED ON UNIT............:   91
 SIMULATED EQUIVALENT HEAD AT DRY CELLS WILL BE:   1.000000E+30

 OBSERVED HEAD DATA -- TIME OFFSETS ARE MULTIPLIED BY:   1.0000    

                    REFER.
       OBSERVATION  STRESS    TIME
  OBS#    NAME      PERIOD   OFFSET    OBSERVATION
     1 hd01.ss          1    0.000       101.8    
 Observation within a steady-state time step has been moved to the end of the time step.
     2 hd02.ss          1    0.000       128.1    
 Observation within a steady-state time step has been moved to the end of the time step.
     3 hd03.ss          1    0.000       156.7    
 Observation within a steady-state time step has been moved to the end of the time step.
     4 hd04.ss          1    0.000       124.9    
 Observation within a steady-state time step has been moved to the end of the time step.
     5 hd05.ss          1    0.000       141.0    
 Observation within a steady-state time step has been moved to the end of the time step.
     6 hd06.ss          1    0.000       126.5    
 Observation within a steady-state time step has been moved to the end of the time step.
     7 hd07.ss          1    0.000       101.1    
 Observation within a steady-state time step has been moved to the end of the time step.
     8 hd08.ss          1    0.000       158.1    
 Observation within a steady-state time step has been moved to the end of the time step.
     9 hd09.ss          1    0.000       176.4    
 Observation within a steady-state time step has been moved to the end of the time step.
    10 hd10.ss          1    0.000       142.0    
 Observation within a steady-state time step has been moved to the end of the time step.

                                                     HEAD CHANGE
                                                      REFERENCE
        OBSERVATION                   ROW     COL    OBSERVATION
  OBS#     NAME       LAY  ROW  COL  OFFSET  OFFSET   (IF > 0)
     1  hd01.ss         1    3    1   0.000   0.000        0
     2  hd02.ss         1    4    4   0.000   0.000        0
     3  hd03.ss         1   10    9   0.000   0.000        0
     4  hd04.ss         1   13    4   0.000   0.000        0
     5  hd05.ss         1   14    6   0.000   0.000        0
     6  hd06.ss         2    4    4   0.000   0.000        0
     7  hd07.ss         2   10    1   0.000   0.000        0
     8  hd08.ss         2   10    9   0.000   0.000        0
     9  hd09.ss         2   10   18   0.000   0.000        0
    10  hd10.ss         2   18    6   0.000   0.000        0

 OBS2RIV7 -- OBSERVATION PROCESS (RIVER FLOW OBSERVATIONS)
 VERSION 2, 02/28/2006
 INPUT READ FROM UNIT   48
 # RVOB: River Observation Package file created on 3/23/2009 by ModelMuse version 1.0.9.0.
 # observed streamflow

 NUMBER OF FLOW-OBSERVATION RIVER-CELL GROUPS.....:      1
   NUMBER OF CELLS IN RIVER-CELL GROUPS...........:     18
   NUMBER OF RIVER-CELL FLOWS.....................:      1
 RIVER OBSERVATIONS WILL BE SAVED ON UNIT.........:     49

 OBSERVED RIVER-CELL FLOW DATA
 -- TIME OFFSETS ARE MULTIPLIED BY:   1.0000    

   GROUP NUMBER:      1   BOUNDARY TYPE: RIV   NUMBER OF CELLS IN GROUP:     18
   NUMBER OF FLOW OBSERVATIONS:      1

                                        OBSERVED
                    REFER.             RIVER FLOW
       OBSERVATION  STRESS    TIME     GAIN (-) OR
  OBS#    NAME      PERIOD   OFFSET     LOSS (+)
     1 Flow01_1         1    1.000      -4.400    

       LAYER  ROW  COLUMN    FACTOR
          1.    1.     1.     1.00
          1.    2.     1.     1.00
          1.    3.     1.     1.00
          1.    4.     1.     1.00
          1.    5.     1.     1.00
          1.    6.     1.     1.00
          1.    7.     1.     1.00
          1.    8.     1.     1.00
          1.    9.     1.     1.00
          1.   10.     1.     1.00
          1.   11.     1.     1.00
          1.   12.     1.     1.00
          1.   13.     1.     1.00
          1.   14.     1.     1.00
          1.   15.     1.     1.00
          1.   16.     1.     1.00
          1.   17.     1.     1.00
          1.   18.     1.     1.00
1
                            STRESS PERIOD NO.    1, LENGTH =   1.000000    
                            -----------------------------------------------

                              NUMBER OF TIME STEPS =     1

                               MULTIPLIER FOR DELT =     1.000

                            INITIAL TIME STEP SIZE =   1.000000    

 Parameter:  K_RB
 REACH NO.  LAYER   ROW   COL     STAGE      CONDUCTANCE     BOTTOM EL.         IFACE           
 -----------------------------------------------------------------------------------------------
      1      1      1      1       100.0           1.200           90.00           0.000    
      2      1      2      1       100.0           1.200           90.00           0.000    
      3      1      3      1       100.0           1.200           90.00           0.000    
      4      1      4      1       100.0           1.200           90.00           0.000    
      5      1      5      1       100.0           1.200           90.00           0.000    
      6      1      6      1       100.0           1.200           90.00           0.000    
      7      1      7      1       100.0           1.200           90.00           0.000    
      8      1      8      1       100.0           1.200           90.00           0.000    
      9      1      9      1       100.0           1.200           90.00           0.000    
     10      1     10      1       100.0           1.200           90.00           0.000    
     11      1     11      1       100.0           1.200           90.00           0.000    
     12      1     12      1       100.0           1.200           90.00           0.000    
     13      1     13      1       100.0           1.200           90.00           0.000    
     14      1     14      1       100.0           1.200           90.00           0.000    
     15      1     15      1       100.0           1.200           90.00           0.000    
     16      1     16      1       100.0           1.200           90.00           0.000    
     17      1     17      1       100.0           1.200           90.00           0.000    
     18      1     18      1       100.0           1.200           90.00           0.000    

     18 RIVER REACHES

 BOUND. NO. LAYER   ROW   COL     STAGE      CONDUCTANCE         IFACE           
 --------------------------------------------------------------------------------
      1      1      1     18       350.0          0.1000E-06       0.000    
      2      1      2     18       350.0          0.1000E-06       0.000    
      3      1      3     18       350.0          0.1000E-06       0.000    
      4      1      4     18       350.0          0.1000E-06       0.000    
      5      1      5     18       350.0          0.1000E-06       0.000    
      6      1      6     18       350.0          0.1000E-06       0.000    
      7      1      7     18       350.0          0.1000E-06       0.000    
      8      1      8     18       350.0          0.1000E-06       0.000    
      9      1      9     18       350.0          0.1000E-06       0.000    
     10      1     10     18       350.0          0.1000E-06       0.000    
     11      1     11     18       350.0          0.1000E-06       0.000    
     12      1     12     18       350.0          0.1000E-06       0.000    
     13      1     13     18       350.0          0.1000E-06       0.000    
     14      1     14     18       350.0          0.1000E-06       0.000    
     15      1     15     18       350.0          0.1000E-06       0.000    
     16      1     16     18       350.0          0.1000E-06       0.000    
     17      1     17     18       350.0          0.1000E-06       0.000    
     18      1     18     18       350.0          0.1000E-06       0.000    
     19      2      1     18       350.0          0.1000E-06       0.000    
     20      2      2     18       350.0          0.1000E-06       0.000    
     21      2      3     18       350.0          0.1000E-06       0.000    
     22      2      4     18       350.0          0.1000E-06       0.000    
     23      2      5     18       350.0          0.1000E-06       0.000    
     24      2      6     18       350.0          0.1000E-06       0.000    
     25      2      7     18       350.0          0.1000E-06       0.000    
     26      2      8     18       350.0          0.1000E-06       0.000    
     27      2      9     18       350.0          0.1000E-06       0.000    
     28      2     10     18       350.0          0.1000E-06       0.000    
     29      2     11     18       350.0          0.1000E-06       0.000    
     30      2     12     18       350.0          0.1000E-06       0.000    
     31      2     13     18       350.0          0.1000E-06       0.000    
     32      2     14     18       350.0          0.1000E-06       0.000    
     33      2     15     18       350.0          0.1000E-06       0.000    
     34      2     16     18       350.0          0.1000E-06       0.000    
     35      2     17     18       350.0          0.1000E-06       0.000    
     36      2     18     18       350.0          0.1000E-06       0.000    

     36 GHB CELLS



 RECH array defined by the following parameters:
 Parameter:  RCH_1
 Parameter:  RCH_2


                           RECHARGE

            1           2           3           4           5           6           7           8           9          10
           11          12          13          14          15          16          17          18
 ........................................................................................................................
   1   2.0000E-08  2.0000E-08  2.0000E-08  2.0000E-08  2.0000E-08  2.0000E-08  2.0000E-08  2.0000E-08  2.0000E-08  1.0000E-08
       1.0000E-08  1.0000E-08  1.0000E-08  1.0000E-08  1.0000E-08  1.0000E-08  1.0000E-08  1.0000E-08
   2   2.0000E-08  2.0000E-08  2.0000E-08  2.0000E-08  2.0000E-08  2.0000E-08  2.0000E-08  2.0000E-08  2.0000E-08  1.0000E-08
       1.0000E-08  1.0000E-08  1.0000E-08  1.0000E-08  1.0000E-08  1.0000E-08  1.0000E-08  1.0000E-08
   3   2.0000E-08  2.0000E-08  2.0000E-08  2.0000E-08  2.0000E-08  2.0000E-08  2.0000E-08  2.0000E-08  2.0000E-08  1.0000E-08
       1.0000E-08  1.0000E-08  1.0000E-08  1.0000E-08  1.0000E-08  1.0000E-08  1.0000E-08  1.0000E-08
   4   2.0000E-08  2.0000E-08  2.0000E-08  2.0000E-08  2.0000E-08  2.0000E-08  2.0000E-08  2.0000E-08  2.0000E-08  1.0000E-08
       1.0000E-08  1.0000E-08  1.0000E-08  1.0000E-08  1.0000E-08  1.0000E-08  1.0000E-08  1.0000E-08
   5   2.0000E-08  2.0000E-08  2.0000E-08  2.0000E-08  2.0000E-08  2.0000E-08  2.0000E-08  2.0000E-08  2.0000E-08  1.0000E-08
       1.0000E-08  1.0000E-08  1.0000E-08  1.0000E-08  1.0000E-08  1.0000E-08  1.0000E-08  1.0000E-08
   6   2.0000E-08  2.0000E-08  2.0000E-08  2.0000E-08  2.0000E-08  2.0000E-08  2.0000E-08  2.0000E-08  2.0000E-08  1.0000E-08
       1.0000E-08  1.0000E-08  1.0000E-08  1.0000E-08  1.0000E-08  1.0000E-08  1.0000E-08  1.0000E-08
   7   2.0000E-08  2.0000E-08  2.0000E-08  2.0000E-08  2.0000E-08  2.0000E-08  2.0000E-08  2.0000E-08  2.0000E-08  1.0000E-08
       1.0000E-08  1.0000E-08  1.0000E-08  1.0000E-08  1.0000E-08  1.0000E-08  1.0000E-08  1.0000E-08
   8   2.0000E-08  2.0000E-08  2.0000E-08  2.0000E-08  2.0000E-08  2.0000E-08  2.0000E-08  2.0000E-08  2.0000E-08  1.0000E-08
       1.0000E-08  1.0000E-08  1.0000E-08  1.0000E-08  1.0000E-08  1.0000E-08  1.0000E-08  1.0000E-08
   9   2.0000E-08  2.0000E-08  2.0000E-08  2.0000E-08  2.0000E-08  2.0000E-08  2.0000E-08  2.0000E-08  2.0000E-08  1.0000E-08
       1.0000E-08  1.0000E-08  1.0000E-08  1.0000E-08  1.0000E-08  1.0000E-08  1.0000E-08  1.0000E-08
  10   2.0000E-08  2.0000E-08  2.0000E-08  2.0000E-08  2.0000E-08  2.0000E-08  2.0000E-08  2.0000E-08  2.0000E-08  1.0000E-08
       1.0000E-08  1.0000E-08  1.0000E-08  1.0000E-08  1.0000E-08  1.0000E-08  1.0000E-08  1.0000E-08
  11   2.0000E-08  2.0000E-08  2.0000E-08  2.0000E-08  2.0000E-08  2.0000E-08  2.0000E-08  2.0000E-08  2.0000E-08  1.0000E-08
       1.0000E-08  1.0000E-08  1.0000E-08  1.0000E-08  1.0000E-08  1.0000E-08  1.0000E-08  1.0000E-08
  12   2.0000E-08  2.0000E-08  2.0000E-08  2.0000E-08  2.0000E-08  2.0000E-08  2.0000E-08  2.0000E-08  2.0000E-08  1.0000E-08
       1.0000E-08  1.0000E-08  1.0000E-08  1.0000E-08  1.0000E-08  1.0000E-08  1.0000E-08  1.0000E-08
  13   2.0000E-08  2.0000E-08  2.0000E-08  2.0000E-08  2.0000E-08  2.0000E-08  2.0000E-08  2.0000E-08  2.0000E-08  1.0000E-08
       1.0000E-08  1.0000E-08  1.0000E-08  1.0000E-08  1.0000E-08  1.0000E-08  1.0000E-08  1.0000E-08
  14   2.0000E-08  2.0000E-08  2.0000E-08  2.0000E-08  2.0000E-08  2.0000E-08  2.0000E-08  2.0000E-08  2.0000E-08  1.0000E-08
       1.0000E-08  1.0000E-08  1.0000E-08  1.0000E-08  1.0000E-08  1.0000E-08  1.0000E-08  1.0000E-08
  15   2.0000E-08  2.0000E-08  2.0000E-08  2.0000E-08  2.0000E-08  2.0000E-08  2.0000E-08  2.0000E-08  2.0000E-08  1.0000E-08
       1.0000E-08  1.0000E-08  1.0000E-08  1.0000E-08  1.0000E-08  1.0000E-08  1.0000E-08  1.0000E-08
  16   2.0000E-08  2.0000E-08  2.0000E-08  2.0000E-08  2.0000E-08  2.0000E-08  2.0000E-08  2.0000E-08  2.0000E-08  1.0000E-08
       1.0000E-08  1.0000E-08  1.0000E-08  1.0000E-08  1.0000E-08  1.0000E-08  1.0000E-08  1.0000E-08
  17   2.0000E-08  2.0000E-08  2.0000E-08  2.0000E-08  2.0000E-08  2.0000E-08  2.0000E-08  2.0000E-08  2.0000E-08  1.0000E-08
       1.0000E-08  1.0000E-08  1.0000E-08  1.0000E-08  1.0000E-08  1.0000E-08  1.0000E-08  1.0000E-08
  18   2.0000E-08  2.0000E-08  2.0000E-08  2.0000E-08  2.0000E-08  2.0000E-08  2.0000E-08  2.0000E-08  2.0000E-08  1.0000E-08
       1.0000E-08  1.0000E-08  1.0000E-08  1.0000E-08  1.0000E-08  1.0000E-08  1.0000E-08  1.0000E-08
 
 SOLVING FOR HEAD 


     1 CALLS TO PCG ROUTINE FOR TIME STEP   1 IN STRESS PERIOD    1
    19 TOTAL ITERATIONS

 MAXIMUM HEAD CHANGE FOR EACH ITERATION (1 INDICATES THE FIRST INNER ITERATION):

    HEAD CHANGE    HEAD CHANGE    HEAD CHANGE    HEAD CHANGE    HEAD CHANGE 
   LAYER,ROW,COL  LAYER,ROW,COL  LAYER,ROW,COL  LAYER,ROW,COL  LAYER,ROW,COL
 ---------------------------------------------------------------------------
  1   384.6      0  -355.1      0  -87.14      0  -25.15      0  -10.88    
   (  2,  1, 18)  (  2,  1, 18)  (  1, 18, 18)  (  2, 16, 11)  (  2,  7, 14)
  0  -6.946      0  -4.046      0  -1.614      0 -0.8427      0 -0.4320    
   (  2,  1, 18)  (  2, 18, 14)  (  2,  1, 18)  (  2, 18,  9)  (  2,  1, 18)
  0 -0.1941      0 -0.9776E-01  0 -0.3671E-01  0 -0.3432E-01  0  0.1743E-01
   (  2, 18,  4)  (  2, 18,  3)  (  2,  7,  9)  (  2,  1, 18)  (  2,  4, 17)
  0 -0.7776E-02  0 -0.3680E-02  0 -0.1482E-02  0 -0.9867E-03
   (  2, 18,  2)  (  2,  2, 10)  (  1,  6, 18)  (  2,  4,  8)

 MAXIMUM RESIDUAL FOR EACH ITERATION (1 INDICATES THE FIRST INNER ITERATION):

    RESIDUAL       RESIDUAL       RESIDUAL       RESIDUAL       RESIDUAL    
   LAYER,ROW,COL  LAYER,ROW,COL  LAYER,ROW,COL  LAYER,ROW,COL  LAYER,ROW,COL
 ---------------------------------------------------------------------------
  1   3.784      0  0.6746      0 -0.1351      0  0.7369E-01  0 -0.3937E-01
   (  1,  1,  1)  (  1,  1,  1)  (  2, 18,  5)  (  1,  1,  3)  (  2, 18,  3)
  0 -0.2793E-01  0 -0.1829E-01  0 -0.1086E-01  0  0.5519E-02  0  0.3278E-02
   (  1, 18,  2)  (  1, 18,  2)  (  1, 18,  2)  (  2, 18,  4)  (  2, 18,  3)
  0  0.1629E-02  0  0.6434E-03  0  0.3525E-03  0  0.2468E-03  0  0.1356E-03
   (  2, 18,  3)  (  1,  2,  2)  (  2, 18,  2)  (  2, 18,  2)  (  1,  4,  2)
  0  0.6092E-04  0 -0.3448E-04  0 -0.1914E-04  0  0.8435E-05
   (  1,  6,  2)  (  1, 17,  4)  (  1, 17,  4)  (  1, 17,  6)



 OUTPUT CONTROL FOR STRESS PERIOD    1   TIME STEP    1
    PRINT HEAD FOR ALL LAYERS
    SAVE HEAD FOR ALL LAYERS
    SAVE DRAWDOWN FOR ALL LAYERS
    SAVE BUDGET
    PRINT BUDGET
 UBDSV2 SAVING "   CONSTANT HEAD" ON UNIT   9 AT TIME STEP  1, STRESS PERIOD   1
 UBDSV1 SAVING "FLOW RIGHT FACE " ON UNIT   9 AT TIME STEP  1, STRESS PERIOD   1
 UBDSV1 SAVING "FLOW FRONT FACE " ON UNIT   9 AT TIME STEP  1, STRESS PERIOD   1
 UBDSV1 SAVING "FLOW LOWER FACE " ON UNIT   9 AT TIME STEP  1, STRESS PERIOD   1
 UBDSV4 SAVING "   RIVER LEAKAGE" ON UNIT   9 AT TIME STEP  1, STRESS PERIOD   1
 UBDSV4 SAVING " HEAD DEP BOUNDS" ON UNIT   9 AT TIME STEP  1, STRESS PERIOD   1
 UBDSV3 SAVING "        RECHARGE" ON UNIT   9 AT TIME STEP  1, STRESS PERIOD   1
1
              HEAD IN LAYER   1 AT END OF TIME STEP   1 IN STRESS PERIOD    1
  ---------------------------------------------------------------------------

           1       2       3       4       5       6       7       8       9      10      11      12      13      14      15
 ...........................................................................................................................
   1   100.23  115.14  128.17  139.33  148.96  157.13  164.03  169.74  174.36  177.92  181.01  183.62  185.79  187.53  188.89
   2   100.23  115.14  128.17  139.33  148.96  157.13  164.03  169.74  174.36  177.92  181.01  183.62  185.79  187.53  188.89
   3   100.23  115.14  128.17  139.33  148.96  157.13  164.03  169.74  174.36  177.92  181.01  183.62  185.79  187.53  188.89
   4   100.23  115.14  128.17  139.33  148.96  157.13  164.03  169.74  174.36  177.92  181.01  183.62  185.79  187.53  188.89
   5   100.23  115.14  128.17  139.33  148.96  157.13  164.03  169.74  174.36  177.92  181.01  183.62  185.79  187.53  188.89
   6   100.23  115.14  128.17  139.33  148.96  157.13  164.03  169.74  174.36  177.92  181.01  183.62  185.79  187.53  188.89
   7   100.23  115.14  128.17  139.33  148.96  157.13  164.03  169.74  174.36  177.92  181.01  183.62  185.79  187.53  188.89
   8   100.23  115.14  128.17  139.33  148.96  157.13  164.03  169.74  174.36  177.92  181.01  183.62  185.79  187.53  188.89
   9   100.23  115.14  128.17  139.33  148.96  157.13  164.03  169.74  174.36  177.92  181.01  183.62  185.79  187.53  188.89
  10   100.23  115.14  128.17  139.33  148.96  157.13  164.03  169.74  174.36  177.92  181.01  183.62  185.79  187.53  188.89
  11   100.23  115.14  128.17  139.33  148.96  157.13  164.03  169.74  174.36  177.92  181.01  183.62  185.79  187.53  188.89
  12   100.23  115.14  128.17  139.33  148.96  157.13  164.03  169.74  174.36  177.92  181.01  183.62  185.79  187.53  188.89
  13   100.23  115.14  128.17  139.33  148.96  157.13  164.03  169.74  174.36  177.92  181.01  183.62  185.79  187.53  188.89
  14   100.23  115.14  128.17  139.33  148.96  157.13  164.03  169.74  174.36  177.92  181.01  183.62  185.79  187.53  188.89
  15   100.23  115.14  128.17  139.33  148.96  157.13  164.03  169.74  174.36  177.92  181.01  183.62  185.79  187.53  188.89
  16   100.23  115.14  128.17  139.33  148.96  157.13  164.03  169.74  174.36  177.92  181.01  183.62  185.79  187.53  188.89
  17   100.23  115.14  128.17  139.33  148.96  157.13  164.03  169.74  174.36  177.92  181.01  183.62  185.79  187.53  188.89
  18   100.23  115.14  128.17  139.33  148.96  157.13  164.03  169.74  174.36  177.92  181.01  183.62  185.79  187.53  188.89
1
              HEAD IN LAYER   1 AT END OF TIME STEP   1 IN STRESS PERIOD    1
  ---------------------------------------------------------------------------

          16      17      18
 ...........................
   1   189.87  190.52  190.83
   2   189.87  190.52  190.83
   3   189.87  190.52  190.83
   4   189.87  190.52  190.83
   5   189.87  190.52  190.83
   6   189.87  190.52  190.83
   7   189.87  190.52  190.83
   8   189.87  190.52  190.83
   9   189.87  190.52  190.83
  10   189.87  190.52  190.83
  11   189.87  190.52  190.83
  12   189.87  190.52  190.83
  13   189.87  190.52  190.83
  14   189.87  190.52  190.83
  15   189.87  190.52  190.83
  16   189.87  190.52  190.83
  17   189.87  190.52  190.83
  18   189.87  190.52  190.83
1
              HEAD IN LAYER   2 AT END OF TIME STEP   1 IN STRESS PERIOD    1
  ---------------------------------------------------------------------------

           1       2       3       4       5       6       7       8       9      10      11      12      13      14      15
 ...........................................................................................................................
   1   102.87  115.99  128.97  139.63  149.14  157.04  163.82  169.37  173.96  177.62  180.72  183.29  185.42  187.12  188.44
   2   102.87  115.99  128.97  139.63  149.14  157.04  163.82  169.37  173.96  177.62  180.72  183.29  185.42  187.12  188.44
   3   102.87  115.99  128.97  139.63  149.14  157.04  163.82  169.37  173.96  177.62  180.72  183.29  185.42  187.12  188.44
   4   102.87  115.99  128.97  139.63  149.14  157.04  163.82  169.37  173.96  177.62  180.72  183.29  185.42  187.12  188.44
   5   102.87  115.99  128.97  139.63  149.14  157.04  163.82  169.37  173.96  177.62  180.72  183.29  185.42  187.12  188.44
   6   102.87  115.99  128.97  139.63  149.14  157.04  163.82  169.37  173.96  177.62  180.72  183.29  185.42  187.12  188.44
   7   102.87  115.99  128.97  139.63  149.14  157.04  163.82  169.37  173.96  177.62  180.72  183.29  185.42  187.12  188.44
   8   102.87  115.99  128.97  139.63  149.14  157.04  163.82  169.37  173.96  177.62  180.72  183.29  185.42  187.12  188.44
   9   102.87  115.99  128.97  139.63  149.14  157.04  163.82  169.37  173.96  177.62  180.72  183.29  185.42  187.12  188.44
  10   102.87  115.99  128.97  139.63  149.14  157.04  163.82  169.37  173.96  177.62  180.72  183.29  185.42  187.12  188.44
  11   102.87  115.99  128.97  139.63  149.14  157.04  163.82  169.37  173.96  177.62  180.72  183.29  185.42  187.12  188.44
  12   102.87  115.99  128.97  139.63  149.14  157.04  163.82  169.37  173.96  177.62  180.72  183.29  185.42  187.12  188.44
  13   102.87  115.99  128.97  139.63  149.14  157.04  163.82  169.37  173.96  177.62  180.72  183.29  185.42  187.12  188.44
  14   102.87  115.99  128.97  139.63  149.14  157.04  163.82  169.37  173.96  177.62  180.72  183.29  185.42  187.12  188.44
  15   102.87  115.99  128.97  139.63  149.14  157.04  163.82  169.37  173.96  177.62  180.72  183.29  185.42  187.12  188.44
  16   102.87  115.99  128.97  139.63  149.14  157.04  163.82  169.37  173.96  177.62  180.72  183.29  185.42  187.12  188.44
  17   102.87  115.99  128.97  139.63  149.14  157.04  163.82  169.37  173.96  177.62  180.72  183.29  185.42  187.12  188.44
  18   102.87  115.99  128.97  139.63  149.14  157.04  163.82  169.37  173.96  177.62  180.72  183.29  185.42  187.12  188.44
1
              HEAD IN LAYER   2 AT END OF TIME STEP   1 IN STRESS PERIOD    1
  ---------------------------------------------------------------------------

          16      17      18
 ...........................
   1   189.39  190.01  190.30
   2   189.39  190.01  190.30
   3   189.39  190.01  190.30
   4   189.39  190.01  190.30
   5   189.39  190.01  190.30
   6   189.39  190.01  190.30
   7   189.39  190.01  190.30
   8   189.39  190.01  190.30
   9   189.39  190.01  190.30
  10   189.39  190.01  190.30
  11   189.39  190.01  190.30
  12   189.39  190.01  190.30
  13   189.39  190.01  190.30
  14   189.39  190.01  190.30
  15   189.39  190.01  190.30
  16   189.39  190.01  190.30
  17   189.39  190.01  190.30
  18   189.39  190.01  190.30

 HEAD WILL BE SAVED ON UNIT   37 AT END OF TIME STEP    1, STRESS PERIOD    1

 DRAWDOWN WILL BE SAVED ON UNIT   38 AT END OF TIME STEP    1, STRESS PERIOD    1
1
  VOLUMETRIC BUDGET FOR ENTIRE MODEL AT END OF TIME STEP    1, STRESS PERIOD   1
  ------------------------------------------------------------------------------

     CUMULATIVE VOLUMES      L**3       RATES FOR THIS TIME STEP      L**3/T
     ------------------                 ------------------------

           IN:                                      IN:
           ---                                      ---
             STORAGE =           0.0000               STORAGE =           0.0000
       CONSTANT HEAD =           0.0000         CONSTANT HEAD =           0.0000
       RIVER LEAKAGE =           0.0000         RIVER LEAKAGE =           0.0000
     HEAD DEP BOUNDS =       5.7396E-04       HEAD DEP BOUNDS =       5.7396E-04
            RECHARGE =           4.8600              RECHARGE =           4.8600

            TOTAL IN =           4.8606              TOTAL IN =           4.8606

          OUT:                                     OUT:
          ----                                     ----
             STORAGE =           0.0000               STORAGE =           0.0000
       CONSTANT HEAD =           0.0000         CONSTANT HEAD =           0.0000
       RIVER LEAKAGE =           4.8606         RIVER LEAKAGE =           4.8606
     HEAD DEP BOUNDS =           0.0000       HEAD DEP BOUNDS =           0.0000
            RECHARGE =           0.0000              RECHARGE =           0.0000

           TOTAL OUT =           4.8606             TOTAL OUT =           4.8606

            IN - OUT =       1.8597E-05              IN - OUT =       1.8597E-05

 PERCENT DISCREPANCY =           0.00     PERCENT DISCREPANCY =           0.00






         TIME SUMMARY AT END OF TIME STEP    1 IN STRESS PERIOD    1
                    SECONDS     MINUTES      HOURS       DAYS        YEARS
                    -----------------------------------------------------------
   TIME STEP LENGTH  1.0000     1.66667E-02 2.77778E-04 1.15741E-05 3.16881E-08
 STRESS PERIOD TIME  1.0000     1.66667E-02 2.77778E-04 1.15741E-05 3.16881E-08
         TOTAL TIME  1.0000     1.66667E-02 2.77778E-04 1.15741E-05 3.16881E-08
1

 HEAD AND DRAWDOWN OBSERVATIONS
 OBSERVATION       OBSERVED           SIMULATED
   NAME              VALUE              VALUE             DIFFERENCE
 --------------------------------------------------------------------
 hd01.ss         101.80000305        100.22502899        1.5749740601    
 hd02.ss         128.11999512        139.33146667       -11.211471558    
 hd03.ss         156.67999268        174.36270142       -17.682708740    
 hd04.ss         124.88999939        139.33158875       -14.441589355    
 hd05.ss         140.96000671        157.13279724       -16.172790527    
 hd06.ss         126.54000092        139.63237000       -13.092369080    
 hd07.ss         101.11000061        102.86777496       -1.7577743530    
 hd08.ss         158.13000488        173.95657349       -15.826568604    
 hd09.ss         176.36999512        190.30024719       -13.930252075    
 hd10.ss         142.02000427        157.04141235       -15.021408081    

 HEAD/DRAWDOWN SUM OF SQUARED DIFFERENCE:    1.75565E+03

 RIVER FLOW OBSERVATIONS
 OBSERVATION       OBSERVED           SIMULATED
   NAME              VALUE              VALUE             DIFFERENCE
 --------------------------------------------------------------------
 Flow01_1       -4.4000000954       -4.8606066704       0.46060657501    

 RIV FLOW SUM OF SQUARED DIFFERENCE:    2.12158E-01

 Run end date and time (yyyy/mm/dd hh:mm:ss): 2020/01/13 11:34:33
 Elapsed run time:  0.044 Seconds

