                                  MODFLOW-2000
      U.S. GEOLOGICAL SURVEY MODULAR FINITE-DIFFERENCE GROUND-WATER FLOW MODEL
                           VERSION 1.17.01 09/22/2006


 This model run produced both GLOBAL and LIST files.  This is the LIST file.

 
 # MODULAR MODEL - TWO-LAYER EXAMPLE PROBLEM, TEST CASE TC1                      
 #                                                                               
 THE FREE FORMAT OPTION HAS BEEN SELECTED
    2 LAYERS        18 ROWS        18 COLUMNS
    1 STRESS PERIOD(S) IN SIMULATION

 BAS6 -- BASIC PACKAGE, VERSION 6, 1/11/2000 INPUT READ FROM UNIT   41
         10 ELEMENTS IN IR ARRAY ARE USED BY BAS

 WEL6 -- WELL PACKAGE, VERSION 6, 1/11/2000 INPUT READ FROM UNIT   43
 No named parameters
 MAXIMUM OF      2 ACTIVE WELLS AT ONE TIME
          8 ELEMENTS IN RX ARRAY ARE USED BY WEL

 RIV6 -- RIVER PACKAGE, VERSION 6, 1/11/2000 INPUT READ FROM UNIT   47
 # RIV file for test case tc1
 #
     1 Named Parameters        18 List entries
 MAXIMUM OF     18 ACTIVE RIVER REACHES AT ONE TIME
        216 ELEMENTS IN RX ARRAY ARE USED BY RIV

 GHB6 -- GHB PACKAGE, VERSION 6, 1/11/2000 INPUT READ FROM UNIT   46
 No named parameters
 MAXIMUM OF     36 ACTIVE GHB CELLS AT ONE TIME
        180 ELEMENTS IN RX ARRAY ARE USED BY GHB

 RCH6 -- RECHARGE PACKAGE, VERSION 6, 1/11/2000 INPUT READ FROM UNIT   48
     2 Named Parameters     
 OPTION 1 -- RECHARGE TO TOP LAYER
        324 ELEMENTS IN RX ARRAY ARE USED BY RCH
        324 ELEMENTS IN IR ARRAY ARE USED BY RCH

        728  ELEMENTS OF RX ARRAY USED OUT OF        728
          0  ELEMENTS OF RZ ARRAY USED OUT OF          1
        334  ELEMENTS OF IR ARRAY USED OUT OF        334
1
 # MODULAR MODEL - TWO-LAYER EXAMPLE PROBLEM, TEST CASE TC1                      
 #                                                                               

           BOUNDARY ARRAY =              1 FOR LAYER   1

           BOUNDARY ARRAY =              1 FOR LAYER   2

 AQUIFER HEAD WILL BE SET TO  0.0000     AT ALL NO-FLOW NODES (IBOUND=0).

             INITIAL HEAD =   200.000     FOR LAYER   1

             INITIAL HEAD =   200.000     FOR LAYER   2

 OUTPUT CONTROL IS SPECIFIED ONLY AT TIME STEPS FOR WHICH OUTPUT IS DESIRED
 HEAD PRINT FORMAT CODE IS  14    DRAWDOWN PRINT FORMAT CODE IS   0
 HEADS WILL BE SAVED ON UNIT    0    DRAWDOWNS WILL BE SAVED ON UNIT    0

    HYD. COND. ALONG ROWS is defined by the following parameters:
 HK_1      

    HYD. COND. ALONG ROWS =  4.619068E-04 FOR LAYER   1

  HORIZ. TO VERTICAL ANI. is defined by the following parameters:
 VERT_ANI_1

  HORIZ. TO VERTICAL ANI. =   1.00000     FOR LAYER   1

 QUASI3D VERT. HYD. COND. is defined by the following parameters:
 VK_CB     

 QUASI3D VERT. HYD. COND. =  9.899981E-08 FOR LAYER   1

    HYD. COND. ALONG ROWS is defined by the following parameters:
 HK_2      


              HYD. COND. ALONG ROWS FOR LAYER   2

          1         2         3         4         5         6         7
          8         9        10        11        12        13        14
         15        16        17        18
 ......................................................................
   1   1.53E-05  1.53E-05  3.07E-05  3.07E-05  4.60E-05  4.60E-05  6.13E-05
       6.13E-05  7.67E-05  7.67E-05  9.20E-05  9.20E-05  1.07E-04  1.07E-04
       1.23E-04  1.23E-04  1.38E-04  1.38E-04
   2   1.53E-05  1.53E-05  3.07E-05  3.07E-05  4.60E-05  4.60E-05  6.13E-05
       6.13E-05  7.67E-05  7.67E-05  9.20E-05  9.20E-05  1.07E-04  1.07E-04
       1.23E-04  1.23E-04  1.38E-04  1.38E-04
   3   1.53E-05  1.53E-05  3.07E-05  3.07E-05  4.60E-05  4.60E-05  6.13E-05
       6.13E-05  7.67E-05  7.67E-05  9.20E-05  9.20E-05  1.07E-04  1.07E-04
       1.23E-04  1.23E-04  1.38E-04  1.38E-04
   4   1.53E-05  1.53E-05  3.07E-05  3.07E-05  4.60E-05  4.60E-05  6.13E-05
       6.13E-05  7.67E-05  7.67E-05  9.20E-05  9.20E-05  1.07E-04  1.07E-04
       1.23E-04  1.23E-04  1.38E-04  1.38E-04
   5   1.53E-05  1.53E-05  3.07E-05  3.07E-05  4.60E-05  4.60E-05  6.13E-05
       6.13E-05  7.67E-05  7.67E-05  9.20E-05  9.20E-05  1.07E-04  1.07E-04
       1.23E-04  1.23E-04  1.38E-04  1.38E-04
   6   1.53E-05  1.53E-05  3.07E-05  3.07E-05  4.60E-05  4.60E-05  6.13E-05
       6.13E-05  7.67E-05  7.67E-05  9.20E-05  9.20E-05  1.07E-04  1.07E-04
       1.23E-04  1.23E-04  1.38E-04  1.38E-04
   7   1.53E-05  1.53E-05  3.07E-05  3.07E-05  4.60E-05  4.60E-05  6.13E-05
       6.13E-05  7.67E-05  7.67E-05  9.20E-05  9.20E-05  1.07E-04  1.07E-04
       1.23E-04  1.23E-04  1.38E-04  1.38E-04
   8   1.53E-05  1.53E-05  3.07E-05  3.07E-05  4.60E-05  4.60E-05  6.13E-05
       6.13E-05  7.67E-05  7.67E-05  9.20E-05  9.20E-05  1.07E-04  1.07E-04
       1.23E-04  1.23E-04  1.38E-04  1.38E-04
   9   1.53E-05  1.53E-05  3.07E-05  3.07E-05  4.60E-05  4.60E-05  6.13E-05
       6.13E-05  7.67E-05  7.67E-05  9.20E-05  9.20E-05  1.07E-04  1.07E-04
       1.23E-04  1.23E-04  1.38E-04  1.38E-04
  10   1.53E-05  1.53E-05  3.07E-05  3.07E-05  4.60E-05  4.60E-05  6.13E-05
       6.13E-05  7.67E-05  7.67E-05  9.20E-05  9.20E-05  1.07E-04  1.07E-04
       1.23E-04  1.23E-04  1.38E-04  1.38E-04
  11   1.53E-05  1.53E-05  3.07E-05  3.07E-05  4.60E-05  4.60E-05  6.13E-05
       6.13E-05  7.67E-05  7.67E-05  9.20E-05  9.20E-05  1.07E-04  1.07E-04
       1.23E-04  1.23E-04  1.38E-04  1.38E-04
  12   1.53E-05  1.53E-05  3.07E-05  3.07E-05  4.60E-05  4.60E-05  6.13E-05
       6.13E-05  7.67E-05  7.67E-05  9.20E-05  9.20E-05  1.07E-04  1.07E-04
       1.23E-04  1.23E-04  1.38E-04  1.38E-04
  13   1.53E-05  1.53E-05  3.07E-05  3.07E-05  4.60E-05  4.60E-05  6.13E-05
       6.13E-05  7.67E-05  7.67E-05  9.20E-05  9.20E-05  1.07E-04  1.07E-04
       1.23E-04  1.23E-04  1.38E-04  1.38E-04
  14   1.53E-05  1.53E-05  3.07E-05  3.07E-05  4.60E-05  4.60E-05  6.13E-05
       6.13E-05  7.67E-05  7.67E-05  9.20E-05  9.20E-05  1.07E-04  1.07E-04
       1.23E-04  1.23E-04  1.38E-04  1.38E-04
  15   1.53E-05  1.53E-05  3.07E-05  3.07E-05  4.60E-05  4.60E-05  6.13E-05
       6.13E-05  7.67E-05  7.67E-05  9.20E-05  9.20E-05  1.07E-04  1.07E-04
       1.23E-04  1.23E-04  1.38E-04  1.38E-04
  16   1.53E-05  1.53E-05  3.07E-05  3.07E-05  4.60E-05  4.60E-05  6.13E-05
       6.13E-05  7.67E-05  7.67E-05  9.20E-05  9.20E-05  1.07E-04  1.07E-04
       1.23E-04  1.23E-04  1.38E-04  1.38E-04
  17   1.53E-05  1.53E-05  3.07E-05  3.07E-05  4.60E-05  4.60E-05  6.13E-05
       6.13E-05  7.67E-05  7.67E-05  9.20E-05  9.20E-05  1.07E-04  1.07E-04
       1.23E-04  1.23E-04  1.38E-04  1.38E-04
  18   1.53E-05  1.53E-05  3.07E-05  3.07E-05  4.60E-05  4.60E-05  6.13E-05
       6.13E-05  7.67E-05  7.67E-05  9.20E-05  9.20E-05  1.07E-04  1.07E-04
       1.23E-04  1.23E-04  1.38E-04  1.38E-04

  HORIZ. TO VERTICAL ANI. is defined by the following parameters:
 VERT_ANI_2

  HORIZ. TO VERTICAL ANI. =   1.00000     FOR LAYER   2
1
                            STRESS PERIOD NO.    1, LENGTH =  0.5520000E+10
                            -----------------------------------------------

                              NUMBER OF TIME STEPS =     1

                               MULTIPLIER FOR DELT =     1.000

                            INITIAL TIME STEP SIZE =  0.5520000E+10

 WELL NO.  LAYER   ROW   COL   STRESS RATE         
 --------------------------------------------------
      1      1      9     10      -1.100    
      2      2      9     10      -1.100    

      2 WELLS

 Parameter:  K_RB
 REACH NO.  LAYER   ROW   COL     STAGE      CONDUCTANCE     BOTTOM EL.         
 -------------------------------------------------------------------------------
      1      1      1      1       100.0           1.169           90.00    
      2      1      2      1       100.0           1.169           90.00    
      3      1      3      1       100.0           1.169           90.00    
      4      1      4      1       100.0           1.169           90.00    
      5      1      5      1       100.0           1.169           90.00    
      6      1      6      1       100.0           1.169           90.00    
      7      1      7      1       100.0           1.169           90.00    
      8      1      8      1       100.0           1.169           90.00    
      9      1      9      1       100.0           1.169           90.00    
     10      1     10      1       100.0           1.169           90.00    
     11      1     11      1       100.0           1.169           90.00    
     12      1     12      1       100.0           1.169           90.00    
     13      1     13      1       100.0           1.169           90.00    
     14      1     14      1       100.0           1.169           90.00    
     15      1     15      1       100.0           1.169           90.00    
     16      1     16      1       100.0           1.169           90.00    
     17      1     17      1       100.0           1.169           90.00    
     18      1     18      1       100.0           1.169           90.00    

     18 RIVER REACHES

 BOUND. NO. LAYER   ROW   COL     STAGE      CONDUCTANCE         
 ----------------------------------------------------------------
      1      1      1     18       350.0          0.1000E-06
      2      1      2     18       350.0          0.1000E-06
      3      1      3     18       350.0          0.1000E-06
      4      1      4     18       350.0          0.1000E-06
      5      1      5     18       350.0          0.1000E-06
      6      1      6     18       350.0          0.1000E-06
      7      1      7     18       350.0          0.1000E-06
      8      1      8     18       350.0          0.1000E-06
      9      1      9     18       350.0          0.1000E-06
     10      1     10     18       350.0          0.1000E-06
     11      1     11     18       350.0          0.1000E-06
     12      1     12     18       350.0          0.1000E-06
     13      1     13     18       350.0          0.1000E-06
     14      1     14     18       350.0          0.1000E-06
     15      1     15     18       350.0          0.1000E-06
     16      1     16     18       350.0          0.1000E-06
     17      1     17     18       350.0          0.1000E-06
     18      1     18     18       350.0          0.1000E-06
     19      2      1     18       350.0          0.1000E-06
     20      2      2     18       350.0          0.1000E-06
     21      2      3     18       350.0          0.1000E-06
     22      2      4     18       350.0          0.1000E-06
     23      2      5     18       350.0          0.1000E-06
     24      2      6     18       350.0          0.1000E-06
     25      2      7     18       350.0          0.1000E-06
     26      2      8     18       350.0          0.1000E-06
     27      2      9     18       350.0          0.1000E-06
     28      2     10     18       350.0          0.1000E-06
     29      2     11     18       350.0          0.1000E-06
     30      2     12     18       350.0          0.1000E-06
     31      2     13     18       350.0          0.1000E-06
     32      2     14     18       350.0          0.1000E-06
     33      2     15     18       350.0          0.1000E-06
     34      2     16     18       350.0          0.1000E-06
     35      2     17     18       350.0          0.1000E-06
     36      2     18     18       350.0          0.1000E-06

     36 GHB CELLS



 RECH array defined by the following parameters:
 Parameter:  RCH_1
 Parameter:  RCH_2


                           RECHARGE

            1           2           3           4           5           6
            7           8           9          10          11          12
           13          14          15          16          17          18
 ........................................................................
   1   1.5053E-08  1.5053E-08  1.5053E-08  1.5053E-08  1.5053E-08  1.5053E-08
       1.5053E-08  1.5053E-08  1.5053E-08  1.2209E-08  1.2209E-08  1.2209E-08
       1.2209E-08  1.2209E-08  1.2209E-08  1.2209E-08  1.2209E-08  1.2209E-08
   2   1.5053E-08  1.5053E-08  1.5053E-08  1.5053E-08  1.5053E-08  1.5053E-08
       1.5053E-08  1.5053E-08  1.5053E-08  1.2209E-08  1.2209E-08  1.2209E-08
       1.2209E-08  1.2209E-08  1.2209E-08  1.2209E-08  1.2209E-08  1.2209E-08
   3   1.5053E-08  1.5053E-08  1.5053E-08  1.5053E-08  1.5053E-08  1.5053E-08
       1.5053E-08  1.5053E-08  1.5053E-08  1.2209E-08  1.2209E-08  1.2209E-08
       1.2209E-08  1.2209E-08  1.2209E-08  1.2209E-08  1.2209E-08  1.2209E-08
   4   1.5053E-08  1.5053E-08  1.5053E-08  1.5053E-08  1.5053E-08  1.5053E-08
       1.5053E-08  1.5053E-08  1.5053E-08  1.2209E-08  1.2209E-08  1.2209E-08
       1.2209E-08  1.2209E-08  1.2209E-08  1.2209E-08  1.2209E-08  1.2209E-08
   5   1.5053E-08  1.5053E-08  1.5053E-08  1.5053E-08  1.5053E-08  1.5053E-08
       1.5053E-08  1.5053E-08  1.5053E-08  1.2209E-08  1.2209E-08  1.2209E-08
       1.2209E-08  1.2209E-08  1.2209E-08  1.2209E-08  1.2209E-08  1.2209E-08
   6   1.5053E-08  1.5053E-08  1.5053E-08  1.5053E-08  1.5053E-08  1.5053E-08
       1.5053E-08  1.5053E-08  1.5053E-08  1.2209E-08  1.2209E-08  1.2209E-08
       1.2209E-08  1.2209E-08  1.2209E-08  1.2209E-08  1.2209E-08  1.2209E-08
   7   1.5053E-08  1.5053E-08  1.5053E-08  1.5053E-08  1.5053E-08  1.5053E-08
       1.5053E-08  1.5053E-08  1.5053E-08  1.2209E-08  1.2209E-08  1.2209E-08
       1.2209E-08  1.2209E-08  1.2209E-08  1.2209E-08  1.2209E-08  1.2209E-08
   8   1.5053E-08  1.5053E-08  1.5053E-08  1.5053E-08  1.5053E-08  1.5053E-08
       1.5053E-08  1.5053E-08  1.5053E-08  1.2209E-08  1.2209E-08  1.2209E-08
       1.2209E-08  1.2209E-08  1.2209E-08  1.2209E-08  1.2209E-08  1.2209E-08
   9   1.5053E-08  1.5053E-08  1.5053E-08  1.5053E-08  1.5053E-08  1.5053E-08
       1.5053E-08  1.5053E-08  1.5053E-08  1.2209E-08  1.2209E-08  1.2209E-08
       1.2209E-08  1.2209E-08  1.2209E-08  1.2209E-08  1.2209E-08  1.2209E-08
  10   1.5053E-08  1.5053E-08  1.5053E-08  1.5053E-08  1.5053E-08  1.5053E-08
       1.5053E-08  1.5053E-08  1.5053E-08  1.2209E-08  1.2209E-08  1.2209E-08
       1.2209E-08  1.2209E-08  1.2209E-08  1.2209E-08  1.2209E-08  1.2209E-08
  11   1.5053E-08  1.5053E-08  1.5053E-08  1.5053E-08  1.5053E-08  1.5053E-08
       1.5053E-08  1.5053E-08  1.5053E-08  1.2209E-08  1.2209E-08  1.2209E-08
       1.2209E-08  1.2209E-08  1.2209E-08  1.2209E-08  1.2209E-08  1.2209E-08
  12   1.5053E-08  1.5053E-08  1.5053E-08  1.5053E-08  1.5053E-08  1.5053E-08
       1.5053E-08  1.5053E-08  1.5053E-08  1.2209E-08  1.2209E-08  1.2209E-08
       1.2209E-08  1.2209E-08  1.2209E-08  1.2209E-08  1.2209E-08  1.2209E-08
  13   1.5053E-08  1.5053E-08  1.5053E-08  1.5053E-08  1.5053E-08  1.5053E-08
       1.5053E-08  1.5053E-08  1.5053E-08  1.2209E-08  1.2209E-08  1.2209E-08
       1.2209E-08  1.2209E-08  1.2209E-08  1.2209E-08  1.2209E-08  1.2209E-08
  14   1.5053E-08  1.5053E-08  1.5053E-08  1.5053E-08  1.5053E-08  1.5053E-08
       1.5053E-08  1.5053E-08  1.5053E-08  1.2209E-08  1.2209E-08  1.2209E-08
       1.2209E-08  1.2209E-08  1.2209E-08  1.2209E-08  1.2209E-08  1.2209E-08
  15   1.5053E-08  1.5053E-08  1.5053E-08  1.5053E-08  1.5053E-08  1.5053E-08
       1.5053E-08  1.5053E-08  1.5053E-08  1.2209E-08  1.2209E-08  1.2209E-08
       1.2209E-08  1.2209E-08  1.2209E-08  1.2209E-08  1.2209E-08  1.2209E-08
  16   1.5053E-08  1.5053E-08  1.5053E-08  1.5053E-08  1.5053E-08  1.5053E-08
       1.5053E-08  1.5053E-08  1.5053E-08  1.2209E-08  1.2209E-08  1.2209E-08
       1.2209E-08  1.2209E-08  1.2209E-08  1.2209E-08  1.2209E-08  1.2209E-08
  17   1.5053E-08  1.5053E-08  1.5053E-08  1.5053E-08  1.5053E-08  1.5053E-08
       1.5053E-08  1.5053E-08  1.5053E-08  1.2209E-08  1.2209E-08  1.2209E-08
       1.2209E-08  1.2209E-08  1.2209E-08  1.2209E-08  1.2209E-08  1.2209E-08
  18   1.5053E-08  1.5053E-08  1.5053E-08  1.5053E-08  1.5053E-08  1.5053E-08
       1.5053E-08  1.5053E-08  1.5053E-08  1.2209E-08  1.2209E-08  1.2209E-08
       1.2209E-08  1.2209E-08  1.2209E-08  1.2209E-08  1.2209E-08  1.2209E-08
 
 SOLVING FOR HEAD 


     1 CALLS TO PCG ROUTINE FOR TIME STEP   1 IN STRESS PERIOD    1
    35 TOTAL ITERATIONS

 MAXIMUM HEAD CHANGE FOR EACH ITERATION (1 INDICATES THE FIRST INNER ITERATION):

    HEAD CHANGE    HEAD CHANGE    HEAD CHANGE    HEAD CHANGE    HEAD CHANGE 
   LAYER,ROW,COL  LAYER,ROW,COL  LAYER,ROW,COL  LAYER,ROW,COL  LAYER,ROW,COL
 ---------------------------------------------------------------------------
  1   455.9      0  -543.5      0  -87.05      0   51.30      0   16.99    
   (  2,  1, 18)  (  2,  1, 18)  (  1, 18, 18)  (  2,  9, 10)  (  2,  9, 10)
  0  -12.21      0   6.498      0  -3.398      0   2.609      0 -0.9448    
   (  1, 18, 18)  (  2,  9, 10)  (  2, 14, 17)  (  2,  1, 18)  (  2,  1, 18)
  0 -0.6393      0 -0.5375      0  0.2218      0  0.2401      0 -0.1860    
   (  2, 12, 10)  (  2,  2,  8)  (  2,  1,  8)  (  2,  1, 18)  (  2,  1, 11)
  0  0.4927E-01  0 -0.4835E-01  0  0.2107E-01  0 -0.1349E-01  0 -0.7661E-02
   (  2,  7, 13)  (  2,  1, 18)  (  2,  7, 18)  (  2,  3, 10)  (  2, 15, 10)
  0 -0.4210E-02  0 -0.2458E-02  0 -0.1565E-02  0 -0.1556E-02  0  0.1255E-02
   (  2,  3,  8)  (  1, 16, 18)  (  2, 18, 11)  (  2,  1, 18)  (  2,  1, 13)
  0 -0.9500E-03  0  0.3307E-03  0 -0.1973E-03  0 -0.1228E-03  0 -0.1066E-03
   (  2, 10, 18)  (  2,  9, 16)  (  2, 11, 10)  (  2,  1,  7)  (  2,  1, 18)
  0  0.3768E-04  0 -0.2295E-04  0 -0.2886E-04  0  0.1922E-04  0 -0.4804E-05
   (  2,  1, 16)  (  2, 16,  7)  (  2,  1, 13)  (  2,  3, 18)  (  2,  5, 18)

 MAXIMUM RESIDUAL FOR EACH ITERATION (1 INDICATES THE FIRST INNER ITERATION):

    RESIDUAL       RESIDUAL       RESIDUAL       RESIDUAL       RESIDUAL    
   LAYER,ROW,COL  LAYER,ROW,COL  LAYER,ROW,COL  LAYER,ROW,COL  LAYER,ROW,COL
 ---------------------------------------------------------------------------
  1   8.983      0  -2.020      0  -1.377      0 -0.8372      0 -0.4752    
   (  1,  1,  1)  (  2,  9, 10)  (  2,  9, 10)  (  2,  9, 10)  (  2,  9, 10)
  0 -0.2797      0 -0.1428      0 -0.7580E-01  0 -0.4284E-01  0 -0.1876E-01
   (  2,  9, 10)  (  2,  9, 10)  (  1,  9, 10)  (  1,  9, 10)  (  1,  9, 10)
  0 -0.1027E-01  0 -0.5591E-02  0 -0.3211E-02  0 -0.2575E-02  0 -0.1315E-02
   (  2, 10,  9)  (  1,  9, 10)  (  1,  9, 10)  (  1,  9, 10)  (  1, 11, 10)
  0  0.8827E-03  0 -0.5349E-03  0 -0.3389E-03  0 -0.1977E-03  0 -0.1069E-03
   (  1,  8, 10)  (  1,  9, 11)  (  1,  9, 11)  (  1, 10, 10)  (  1,  9, 11)
  0 -0.5271E-04  0 -0.4373E-04  0 -0.2184E-04  0  0.1734E-04  0  0.1270E-04
   (  1, 10, 10)  (  1, 10, 10)  (  1, 10, 10)  (  1,  9,  2)  (  1,  9,  2)
  0  0.9795E-05  0  0.6036E-05  0  0.3680E-05  0  0.2134E-05  0  0.1189E-05
   (  1, 10,  2)  (  1, 10,  2)  (  1, 11,  2)  (  1, 11,  2)  (  1, 11,  2)
  0  0.8270E-06  0  0.4531E-06  0  0.2895E-06  0  0.2146E-06  0  0.1100E-06
   (  1, 11,  2)  (  1, 12,  2)  (  1, 12,  2)  (  1, 12,  2)  (  1, 12,  2)



 OUTPUT CONTROL FOR STRESS PERIOD    1   TIME STEP   1
    PRINT HEAD FOR ALL LAYERS
1
              HEAD IN LAYER   1 AT END OF TIME STEP   1 IN STRESS PERIOD    1
  ---------------------------------------------------------------------------

          1      2      3      4      5      6      7      8      9     10
         11     12     13     14     15     16     17     18
 .........................................................................
   1   100.1  104.9  109.0  112.5  115.5  118.1  120.3  122.2  123.8  125.4
       126.8  128.3  129.7  130.9  132.0  132.8  133.4  133.6
   2   100.1  104.8  108.9  112.4  115.3  117.8  120.0  121.8  123.4  124.9
       126.4  127.9  129.3  130.6  131.8  132.6  133.2  133.5
   3   100.1  104.8  108.8  112.1  115.0  117.3  119.3  121.0  122.5  124.0
       125.6  127.1  128.7  130.1  131.4  132.3  133.0  133.3
   4   100.1  104.6  108.5  111.8  114.4  116.6  118.3  119.8  121.1  122.5
       124.2  125.9  127.7  129.4  130.8  131.9  132.6  133.0
   5   100.1  104.5  108.3  111.3  113.8  115.6  117.0  118.1  119.1  120.4
       122.2  124.3  126.5  128.4  130.1  131.4  132.2  132.6
   6   100.1  104.4  108.0  110.9  113.0  114.6  115.5  115.9  116.3  117.2
       119.3  122.1  124.9  127.4  129.3  130.8  131.8  132.3
   7   100.1  104.3  107.7  110.4  112.4  113.5  113.8  113.3  112.4  112.3
       115.5  119.5  123.2  126.3  128.7  130.4  131.5  132.0
   8   100.1  104.2  107.6  110.1  111.9  112.6  112.3  110.5  107.3  104.1
       110.5  116.8  121.8  125.5  128.2  130.1  131.3  131.9
   9   100.1  104.2  107.5  110.1  111.7  112.3  111.6  108.8  102.5   88.4
       105.7  115.2  121.2  125.2  128.1  130.0  131.3  131.9
  10   100.1  104.2  107.6  110.2  112.0  112.8  112.4  110.7  107.5  104.3
       110.7  117.0  122.0  125.7  128.4  130.3  131.5  132.1
  11   100.1  104.3  107.9  110.6  112.6  113.8  114.1  113.6  112.8  112.7
       115.9  120.0  123.7  126.7  129.1  130.8  131.9  132.4
  12   100.1  104.5  108.2  111.1  113.4  115.0  116.0  116.5  116.9  117.8
       120.0  122.8  125.6  128.0  130.0  131.5  132.5  132.9
  13   100.1  104.6  108.5  111.7  114.2  116.2  117.7  118.9  119.9  121.2
       123.0  125.2  127.4  129.3  131.0  132.2  133.1  133.5
  14   100.1  104.8  108.9  112.2  115.0  117.3  119.2  120.8  122.2  123.6
       125.3  127.1  128.9  130.5  131.9  133.0  133.7  134.1
  15   100.1  105.0  109.2  112.7  115.7  118.3  120.4  122.2  123.8  125.3
       126.9  128.5  130.1  131.5  132.7  133.6  134.3  134.6
  16   100.1  105.1  109.4  113.1  116.3  118.9  121.2  123.2  125.0  126.5
       128.1  129.6  131.0  132.3  133.3  134.2  134.7  135.0
  17   100.1  105.2  109.6  113.4  116.6  119.4  121.8  123.9  125.7  127.3
       128.8  130.3  131.6  132.8  133.7  134.5  135.0  135.3
  18   100.1  105.2  109.7  113.5  116.8  119.6  122.1  124.2  126.1  127.7
       129.2  130.6  131.9  133.0  134.0  134.7  135.2  135.5
1
              HEAD IN LAYER   2 AT END OF TIME STEP   1 IN STRESS PERIOD    1
  ---------------------------------------------------------------------------

          1      2      3      4      5      6      7      8      9     10
         11     12     13     14     15     16     17     18
 .........................................................................
   1   100.5  105.0  109.1  112.5  115.5  118.0  120.2  122.0  123.7  125.2
       126.7  128.1  129.5  130.7  131.7  132.5  133.1  133.4
   2   100.5  104.9  109.0  112.4  115.3  117.8  119.9  121.7  123.3  124.8
       126.3  127.8  129.2  130.4  131.5  132.4  133.0  133.2
   3   100.5  104.8  108.8  112.1  114.9  117.3  119.2  120.9  122.4  123.9
       125.4  127.0  128.5  129.9  131.1  132.1  132.7  133.0
   4   100.4  104.7  108.6  111.8  114.4  116.5  118.2  119.7  121.0  122.4
       124.0  125.8  127.6  129.2  130.6  131.6  132.3  132.7
   5   100.4  104.6  108.3  111.3  113.7  115.5  116.9  118.0  118.9  120.2
       122.0  124.1  126.3  128.2  129.9  131.1  131.9  132.3
   6   100.4  104.4  108.0  110.8  113.0  114.4  115.3  115.7  116.0  116.9
       119.1  122.0  124.8  127.2  129.1  130.6  131.5  132.0
   7   100.4  104.3  107.8  110.4  112.3  113.3  113.6  112.9  111.7  111.2
       114.9  119.3  123.1  126.1  128.5  130.1  131.2  131.7
   8   100.4  104.3  107.6  110.1  111.8  112.5  112.0  109.8  105.2   98.2
       108.6  116.3  121.6  125.3  128.0  129.9  131.0  131.6
   9   100.4  104.2  107.6  110.0  111.6  112.1  111.2  107.5   96.2   51.4
        99.9  114.1  120.9  125.0  127.9  129.8  131.0  131.6
  10   100.4  104.3  107.7  110.2  111.9  112.6  112.1  110.0  105.4   98.4
       108.8  116.5  121.8  125.5  128.2  130.1  131.2  131.8
  11   100.4  104.4  107.9  110.6  112.5  113.6  113.9  113.3  112.1  111.6
       115.4  119.7  123.5  126.6  128.9  130.6  131.7  132.2
  12   100.4  104.5  108.2  111.1  113.3  114.9  115.8  116.3  116.6  117.5
       119.8  122.6  125.4  127.9  129.8  131.3  132.2  132.7
  13   100.4  104.7  108.6  111.7  114.2  116.1  117.6  118.7  119.7  121.0
       122.9  125.0  127.2  129.1  130.8  132.0  132.8  133.2
  14   100.5  104.9  108.9  112.2  115.0  117.3  119.1  120.6  122.0  123.5
       125.1  126.9  128.7  130.3  131.7  132.7  133.4  133.8
  15   100.5  105.0  109.3  112.7  115.7  118.2  120.3  122.1  123.7  125.2
       126.8  128.4  129.9  131.3  132.5  133.4  134.0  134.3
  16   100.5  105.2  109.5  113.1  116.2  118.9  121.1  123.1  124.8  126.4
       127.9  129.4  130.8  132.0  133.1  133.9  134.5  134.7
  17   100.5  105.3  109.7  113.4  116.6  119.4  121.7  123.8  125.6  127.2
       128.7  130.1  131.4  132.6  133.5  134.3  134.8  135.0
  18   100.5  105.3  109.8  113.5  116.8  119.6  122.0  124.1  125.9  127.5
       129.0  130.4  131.7  132.8  133.7  134.5  134.9  135.2
1
  VOLUMETRIC BUDGET FOR ENTIRE MODEL AT END OF TIME STEP  1 IN STRESS PERIOD   1
  ------------------------------------------------------------------------------

     CUMULATIVE VOLUMES      L**3       RATES FOR THIS TIME STEP      L**3/T
     ------------------                 ------------------------

           IN:                                      IN:
           ---                                      ---
             STORAGE =           0.0000               STORAGE =           0.0000
       CONSTANT HEAD =           0.0000         CONSTANT HEAD =           0.0000
               WELLS =           0.0000                 WELLS =           0.0000
       RIVER LEAKAGE =           0.0000         RIVER LEAKAGE =           0.0000
     HEAD DEP BOUNDS =     4308991.5000       HEAD DEP BOUNDS =       7.8061E-04
            RECHARGE = 24378943500.0000              RECHARGE =           4.4165

            TOTAL IN = 24383252500.0000              TOTAL IN =           4.4173

          OUT:                                     OUT:
          ----                                     ----
             STORAGE =           0.0000               STORAGE =           0.0000
       CONSTANT HEAD =           0.0000         CONSTANT HEAD =           0.0000
               WELLS = 12144000000.0000                 WELLS =           2.2000
       RIVER LEAKAGE = 12239156200.0000         RIVER LEAKAGE =           2.2172
     HEAD DEP BOUNDS =           0.0000       HEAD DEP BOUNDS =           0.0000
            RECHARGE =           0.0000              RECHARGE =           0.0000

           TOTAL OUT = 24383156200.0000             TOTAL OUT =           4.4172

            IN - OUT =       96255.5000              IN - OUT =       1.7437E-05

 PERCENT DISCREPANCY =           0.00     PERCENT DISCREPANCY =           0.00






          TIME SUMMARY AT END OF TIME STEP   1 IN STRESS PERIOD    1
                    SECONDS     MINUTES      HOURS       DAYS        YEARS
                    -----------------------------------------------------------
   TIME STEP LENGTH 5.52000E+09 9.20000E+07 1.53333E+06  63889.      174.92    
 STRESS PERIOD TIME 5.52000E+09 9.20000E+07 1.53333E+06  63889.      174.92    
         TOTAL TIME 5.52000E+09 9.20000E+07 1.53333E+06  63889.      174.92    
1

                 POROSITY is defined by the following parameters:
 Porosity  

                 POROSITY =  0.326700     FOR LAYER   1

   CONFINING BED POROSITY is defined by the following parameters:
 POROSTY_CB

   CONFINING BED POROSITY =  0.100000     FOR LAYER   1

                 POROSITY is defined by the following parameters:
 Porosity  

                 POROSITY =  0.326700     FOR LAYER   2


       ENTERING PARTICLE TRACKING ROUTINE (OBS1ADV2P)
 ---------------------------------------------------------
 SUBROUTINE (OBS1ADV2P) IS HARDWIRED WITH THE FOLLOWING OPTIONS:
 LINEAR VELOCITY INTERPOLATION (SOBS1ADV2L)
 SEMI-ANALYTICAL PARTICLE TRACKING (SOBS1ADV2S)


 ADVECTIVE-TRANSPORT OBSERVATION NUMBER   1
         PARTICLE TRACKING LOCATIONS AND TIMES:
 LAYER ROW  COL   X-POSITION   Y-POSITION   Z-POSITION     TIME
--------------------------------------------------------------------------------
    1    2   16   15500.       1500.0       100.00       0.0000                
................................................................................
OBS #     1-    3     OBS NAME: AD10        
    1    2   16   15153.       1610.5       89.275      0.31500E+09            
................................................................................
    1    2   15   15000.       1657.3       85.488      0.44219E+09            
    1    3   15   14087.       2000.0       69.986      0.11045E+10            
    1    3   14   14000.       2028.9       69.040      0.11553E+10            
................................................................................
OBS #     4-    6     OBS NAME: AD50        
    1    3   14   13239.       2355.1       62.489      0.15700E+10            
................................................................................
    1    3   13   13000.       2458.4       60.887      0.16903E+10            
    1    4   13   12079.       3000.0       56.152      0.21283E+10            
    1    4   12   12000.       3043.1       55.867      0.21597E+10            
    1    4   11   11000.       3819.8       52.874      0.25556E+10            
    1    5   11   10836.       4000.0       52.461      0.26209E+10            
    1    6   11   10025.       5000.0       50.709      0.29172E+10            
    1    6   10   10000.       5032.4       50.649      0.29253E+10            
    2    6   10   9797.6       5382.9       50.000      0.29956E+10            
PARTICLE ENTERING CONFINING UNIT
................................................................................
OBS #     7-    9     OBS NAME: A100        
    2    6   10   9797.6       5382.9       45.436      0.31500E+10            
................................................................................
END OF PATH    1 REACHED
 AVERAGE PARTICLE VELOCITY ALONG PATH:  0.22494557E-05


 ALL PARTICLES MOVED EXITING (OBS1ADV2P)



 ADVECTIVE-TRANSPORT OBSERVATIONS 

                          OBSERVED   CALCULATED             WEIGHT  WEIGHTED
  OBS#   ID               LOCATION    LOCATION  RESIDUAL     **0.5  RESIDUAL

     1 AD10         X =   0.950E+04  0.152E+05 -0.565E+04  0.500E-02  -28.3    
     2 AD10         Y =   0.850E+04  0.161E+04  0.689E+04  0.500E-02   34.4    
     3 AD10         Z =    75.0       89.3      -14.3      0.100      -1.43    
     4 AD50         X =   0.950E+04  0.132E+05 -0.374E+04  0.167E-02  -6.23    
     5 AD50         Y =   0.850E+04  0.236E+04  0.614E+04  0.167E-02   10.2    
     6 AD50         Z =    75.0       62.5       12.5      0.667E-01  0.834    
     7 A100         X =   0.950E+04  0.980E+04  -298.      0.100E-02 -0.298    
     8 A100         Y =   0.850E+04  0.538E+04  0.312E+04  0.100E-02   3.12    
     9 A100         Z =    75.0       45.4       29.6      0.400E-01   1.18    

 STATISTICS FOR ADVECTIVE-TRANSPORT RESIDUALS :
 MAXIMUM WEIGHTED RESIDUAL  : 0.344E+02 OBS#      2
 MINIMUM WEIGHTED RESIDUAL  :-0.283E+02 OBS#      1
 AVERAGE WEIGHTED RESIDUAL  : 0.151E+01
 # RESIDUALS >= 0. :      5
 # RESIDUALS < 0.  :      4
 NUMBER OF RUNS  :    4  IN    9 OBSERVATIONS

 SUM OF SQUARED WEIGHTED RESIDUALS
 (ADVECTIVE-TRANSPORT OBSERVATIONS ONLY)   2143.1    

 SUM OF SQUARED WEIGHTED RESIDUALS (ALL DEPENDENT VARIABLES)   2143.1    

 STATISTICS FOR ALL RESIDUALS :
 AVERAGE WEIGHTED RESIDUAL  : 0.151E+01
 # RESIDUALS >= 0. :      5
 # RESIDUALS < 0.  :      4
 NUMBER OF RUNS  :    4  IN    9 OBSERVATIONS

 INTERPRETING THE CALCULATED RUNS STATISTIC VALUE OF    -0.683    
 NOTE: THE FOLLOWING APPLIES ONLY IF 
        # RESIDUALS >= 0 . IS GREATER THAN 10 AND 
        # RESIDUALS < 0.   IS GREATER THAN 10
 THE NEGATIVE VALUE MAY INDICATE TOO FEW RUNS:
    IF THE VALUE IS LESS THAN -1.28, THERE IS LESS THAN A 10 PERCENT
       CHANCE THE VALUES ARE RANDOM,
    IF THE VALUE IS LESS THAN -1.645, THERE IS LESS THAN A 5 PERCENT
       CHANCE THE VALUES ARE RANDOM,
    IF THE VALUE IS LESS THAN -1.96, THERE IS LESS THAN A 2.5 PERCENT
       CHANCE THE VALUES ARE RANDOM.


 ORDERED DEPENDENT-VARIABLE WEIGHTED RESIDUALS
 NUMBER OF RESIDUALS INCLUDED:         9
     -28.3      -6.23      -1.43     -0.298      0.834       1.18       3.12    
      10.2       34.4    

 CORRELATION BETWEEN ORDERED WEIGHTED RESIDUALS AND NORMAL ORDER STATISTICS
 FOR OBSERVATIONS =    0.854    

 --------------------------------------------------------------------------
 COMMENTS ON THE INTERPRETATION OF THE CORRELATION BETWEEN
 WEIGHTED RESIDUALS AND NORMAL ORDER STATISTICS:

 Generally, IF the reported CORRELATION is LESS than the critical value,
 at the selected significance level (usually 5 or 10%), the hypothesis
 that the weighted residuals are INDEPENDENT AND NORMALLY DISTRIBUTED
 would be REJECTED.  HOWEVER, in this case, conditions are outside of
 the range of published critical values as discussed below.

 The sum of the number of observations and prior information items is     9
 which is less than 35, the minimum value for which critical values are
 published.  Therefore, the critical values for the 5 and 10% significance
 levels are less than 0.943 and 0.952, respectively.

 CORRELATIONS GREATER than these critical values indicate that, probably, the 
 weighted residuals ARE INDEPENDENT AND NORMALLY DISTRIBUTED.

 Correlations LESS than these critical values MAY BE ACCEPTABLE, and
 rejection of the hypothesis is not necessarily warranted.

 The Kolmogorov-Smirnov test can be used to further evaluate the residuals.
 --------------------------------------------------------------------------

